Microsoft (R) COFF/PE Dumper Version 14.29.30137.0
Copyright (C) Microsoft Corporation.  All rights reserved.


Dump of file C:\Windows\System32\win32kbase.sys

File Type: EXECUTABLE IMAGE

  Image has the following dependencies:

    watchdog.sys
    msrpc.sys
    ext-ms-win-core-win32k-dxgk-internal-l1-1-0.dll
    ext-ms-win-ntos-werkernel-l1-1-1.dll
    WppRecorder.sys
    ksecdd.sys
    dxgkrnl.sys
    ntoskrnl.exe
    HAL.dll

  Section contains the following imports:

    watchdog.sys
             1C02D9FB8 Import Address Table
             1C02DB108 Import Name Table
                     0 time date stamp
                     0 Index of first forwarder reference

                          1B DisplayScenarioJournalDisplayUniquenessIncremented
                          1C DisplayScenarioJournalFinalize
                          24 DisplayScenarioJournalSetUniqueness
                          23 DisplayScenarioJournalSetSpecializedData
                          17 DisplayScenarioJounralSetTSDDDState
                          1E DisplayScenarioJournalSetActualPathModality
                          1D DisplayScenarioJournalRetry
                          20 DisplayScenarioJournalSetExpectedPathModality
                          3F WdDiagNotifyUser
                          21 DisplayScenarioJournalSetSDCPathsAndModes
                          14 DisplayRestoreVidPnJournalBegin
                          65 WdLogSingleEntry3
                          18 DisplayScenarioJournalBegin
                          66 WdLogSingleEntry4
                          62 WdLogSingleEntry0
                          67 WdLogSingleEntry5
                          64 WdLogSingleEntry2
                          63 WdLogSingleEntry1
                          48 WdInitialize
                          15 DisplayRestoreVidPnJournalFinalize

    msrpc.sys
             1C02D90C8 Import Address Table
             1C02DA218 Import Name Table
                     0 time date stamp
                     0 Index of first forwarder reference

                          34 RpcAsyncCompleteCall
                          37 RpcBindingBind
                          33 RpcAsyncCancelCall
                           9 I_RpcGetCompleteAndFreeRoutine
                          3A RpcBindingFree
                          3F RpcBindingUnbind
                          16 Ndr64AsyncClientCall
                          36 RpcAsyncInitializeHandle
                          39 RpcBindingCreateW
                           4 I_RpcExceptionFilter
                          38 RpcBindingCopy

    ext-ms-win-core-win32k-dxgk-internal-l1-1-0.dll
             1C02D9088 Import Address Table
             1C02DA1D8 Import Name Table
                     0 time date stamp
                     0 Index of first forwarder reference

                           0 DxgkCloseAdapterInternal
                           2 DxgkWaitForVerticalBlankEventInternal
                           1 DxgkOpenAdapterFromLuidInternal

    ext-ms-win-ntos-werkernel-l1-1-1.dll
             1C02D90A8 Import Address Table
             1C02DA1F8 Import Name Table
                     0 time date stamp
                     0 Index of first forwarder reference

                           6 WerSubmitUserCrashReport

    WppRecorder.sys
             1C02D9010 Import Address Table
             1C02DA160 Import Name Table
                     0 time date stamp
                     0 Index of first forwarder reference

                           B imp_WppRecorderLogCreate
                           5 imp_WppRecorderConfigure
                          10 imp_WppRecorderReplay
                           C imp_WppRecorderLogDelete
                           3 WppAutoLogStop
                           4 WppAutoLogTrace
                           2 WppAutoLogStart

    ksecdd.sys
             1C02D90B8 Import Address Table
             1C02DA208 Import Name Table
                     0 time date stamp
                     0 Index of first forwarder reference

                          16 BCryptGenRandom

    dxgkrnl.sys
             1C02D9050 Import Address Table
             1C02DA1A0 Import Name Table
                     0 time date stamp
                     0 Index of first forwarder reference

                           B DxgkGetSessionTokenManager
                          11 DxgkReleaseCompositionObjectReference
                          10 DxgkReferenceCompositionObject
                           E DxgkOpenDwmHandleForCompositionObjectReference
                          12 DxgkSetCompositionSurfaceInkCookie
                         135 g_OutputDuplicationTestControl

    ntoskrnl.exe
             1C02D9128 Import Address Table
             1C02DA278 Import Name Table
                     0 time date stamp
                     0 Index of first forwarder reference

                          BA ExAllocateTimer
                         140 ExReleaseSpinLockSharedFromDpcLevel
                         115 ExQueueWorkItem
                         13F ExReleaseSpinLockShared
                          AD ExAcquireSpinLockShared
                          AE ExAcquireSpinLockSharedAtDpcLevel
                          AB ExAcquireSpinLockExclusive
                         9B6 RtlUpcaseUnicodeToMultiByteN
                         7D8 RtlAnsiCharToUnicodeChar
                         12C ExReleaseFastMutex
                          9C ExAcquireFastMutex
                         BCA __chkstk
                         C1F sqrt
                         C20 sqrtf
                         C26 strcmp
                         C43 wcscmp
                         B5E ZwQueryKey
                         462 KeBugCheckEx
                         10A ExIsResourceAcquiredSharedLite
                         109 ExIsResourceAcquiredExclusiveLite
                         73D PsGetProcessId
                         75A PsGetThreadId
                         879 RtlFreeHeap
                         761 PsGetThreadWin32Thread
                          77 DbgkWerCaptureLiveKernelDump
                         71C PsGetCurrentProcessWin32Process
                         71A PsGetCurrentProcessId
                         71D PsGetCurrentProcessWow64Process
                         98C RtlTestBit
                         7F5 RtlClearBit
                         96C RtlSetBit
                         85C RtlFindClearBits
                         8BF RtlInitializeBitMap
                         7F3 RtlClearAllBits
                         952 RtlRandomEx
                         86D RtlFindSetBits
                         7AC PsSetProcessPriorityByClass
                         743 PsGetProcessPriorityClass
                         7AD PsSetProcessPriorityClass
                          A1 ExAcquirePushLockExclusiveEx
                         47D KeEnterCriticalRegion
                         4C9 KeLeaveCriticalRegion
                         133 ExReleasePushLockExclusiveEx
                          A2 ExAcquirePushLockSharedEx
                         134 ExReleasePushLockSharedEx
                         69B ObfDereferenceObject
                         91F RtlNtStatusToDosError
                         BC7 _purecall
                         BB9 __C_specific_handler
                         8BC RtlInitUnicodeString
                         74E PsGetProcessWin32Process
                         52E KeSetEvent
                         9A2 RtlUnicodeStringToInteger
                         AE7 ZwCreateIoCompletion
                         68B ObReferenceObjectByHandle
                         67A ObDuplicateObject
                         671 ObCloseHandle
                         AF7 ZwCreateWaitCompletionPacket
                         AD4 ZwAssociateWaitCompletionPacket
                         742 PsGetProcessPeb
                         719 PsGetCurrentProcess
                         5F9 MmUserProbeAddress
                         117 ExRaiseDatatypeMisalignment
                         B2C ZwOpenKey
                         B6A ZwQueryValueKey
                         ADA ZwClose
                         75B PsGetThreadProcess
                         11A ExRaiseStatus
                         75C PsGetThreadProcessId
                         745 PsGetProcessSectionBaseAddress
                         AE5 ZwCreateEvent
                          DC ExEventObjectType
                         BA9 ZwTerminateProcess
                          D0 ExDesktopObjectType
                         69D ObfReferenceObject
                         73F PsGetProcessInheritedFromUniqueProcessId
                         7B4 PsSetThreadWin32Thread
                          E5 ExFreePoolWithTag
                         7AF PsSetProcessWin32Process
                          85 EtwActivityIdControl
                         510 KeReleaseSemaphore
                          94 EtwWriteTransfer
                         6FD ProbeForWrite
                         534 KeSetKernelStackSwapEnable
                         722 PsGetCurrentThreadId
                         71B PsGetCurrentProcessSessionId
                         B31 ZwOpenProcess
                         B56 ZwQueryInformationProcess
                         A17 SeQueryInformationToken
                         886 RtlGetAppContainerSidType
                         750 PsGetProcessWow64Process
                         763 PsGetWin32KFilterSet
                         7C2 PsUpdateComponentPower
                         791 PsReleaseProcessWakeCounter
                         73B PsGetProcessExitStatus
                          D4 ExEnterCriticalRegionAndAcquireFastMutexUnsafe
                         12E ExReleaseFastMutexUnsafeAndLeaveCriticalRegion
                         943 RtlQueryPackageClaims
                         110 ExQueryFastCacheDevLicense
                         A27 SeSecurityAttributePresent
                         56E LpcPortObjectType
                         75F PsGetThreadSessionId
                         780 PsLookupThreadByThreadId
                         775 PsIsThreadTerminating
                         749 PsGetProcessSessionId
                         77E PsLookupProcessByProcessId
                         67E ObGetObjectType
                          AF ExActivationObjectType
                         772 PsIsSystemProcess
                         74A PsGetProcessSessionIdEx
                         ABB ZwAllocateLocallyUniqueId
                         672 ObCreateObject
                         67F ObInsertObject
                         686 ObOpenObjectByPointer
                         68E ObReferenceObjectByPointer
                         7FE RtlCompareMemory
                          B4 ExAllocatePool2
                         16F ExWindowStationObjectType
                         729 PsGetCurrentThreadWin32Thread
                          D5 ExEnterCriticalRegionAndAcquireResourceExclusive
                         724 PsGetCurrentThreadProcess
                         4C1 KeIsAttachedProcess
                          D6 ExEnterCriticalRegionAndAcquireResourceShared
                         135 ExReleaseResourceAndLeaveCriticalRegion
                         714 PsEnterPriorityRegion
                         77B PsLeavePriorityRegion
                         4A0 KeInitializeApc
                         4B9 KeInsertQueueApc
                         55A KeWaitForSingleObject
                         B3B ZwOpenThreadTokenEx
                         B33 ZwOpenProcessTokenEx
                         788 PsReferenceImpersonationToken
                         78A PsReferencePrimaryToken
                         A16 SeQueryAuthenticationIdToken
                         A37 SeTokenIsRestricted
                         8BD RtlInitUnicodeStringEx
                         B94 ZwSetInformationThread
                         593 MmCommitSessionMappedView
                         5CF MmMapViewOfSection
                         ABD ZwAllocateVirtualMemory
                         5F7 MmUnmapViewOfSection
                         4A7 KeInitializeEvent
                         AF4 ZwCreateTimer
                         4AE KeInitializeSemaphore
                         4B3 KeInitializeTimerEx
                         695 ObSetHandleAttributes
                         155 ExTimerObjectType
                         32F IoFileObjectType
                         B9E ZwSetSystemInformation
                         B67 ZwQuerySystemInformation
                          F7 ExInitializeResourceLite
                          CE ExDeleteResourceLite
                         7BC PsTlsAlloc
                         7BD PsTlsFree
                         7BF PsTlsSetValue
                         7BE PsTlsGetValue
                         8CF RtlInt64ToUnicodeString
                         801 RtlCompareUnicodeString
                         BA3 ZwSetValueKey
                         B0C ZwFlushKey
                         AFD ZwDeleteValueKey
                         B3F ZwPowerInformation
                         883 RtlGetActiveConsoleId
                         366 IoGetRelatedDeviceObject
                         969 RtlSetActiveConsoleId
                         522 KeResetEvent
                         7D7 RtlAllocateHeap
                         690 ObReferenceObjectSafe
                         BB4 ZwUpdateWnfStateData
                         4F4 KeQueryTimeIncrement
                         6F3 PoSetUserPresent
                         558 KeWaitForMultipleObjects
                         570 LpcRequestPort
                         463 KeCancelTimer
                         83B RtlDestroyAtomTable
                         862 RtlFindExportedRoutineByName
                         5E3 MmSectionObjectType
                         AF0 ZwCreateSection
                         B36 ZwOpenSection
                         5CB MmMapViewInSessionSpace
                         5F5 MmUnmapViewInSessionSpace
                         83C RtlDestroyHeap
                          8E EtwUnregister
                         520 KeRemoveSystemServiceTable
                         9AC RtlUnregisterFeatureConfigurationChangeNotification
                         B2A ZwOpenFile
                         93E RtlQueryFeatureConfiguration
                         958 RtlRegisterFeatureConfigurationChangeNotification
                         93F RtlQueryFeatureConfigurationChangeStamp
                         88B RtlGetCurrentServiceSessionId
                         B55 ZwQueryInformationJobObject
                         309 IoCreateDriver
                          89 EtwRegister
                          8C EtwSetInformation
                         455 KeAddSystemServiceTable
                          75 DbgkLkmdRegisterCallback
                         8EE RtlIsApiSetImplemented
                         5D5 MmPageEntireDriver
                          F8 ExInitializeRundownProtection
                         68D ObReferenceObjectByName
                         328 IoDriverObjectType
                         949 RtlQueryRegistryValues
                         A00 SeExports
                         9F2 SeCreateAccessState
                         670 ObCheckObjectAccess
                         9FA SeDeleteAccessState
                         9E7 SeCaptureSubjectContext
                         A0B SeLockSubjectContext
                         A13 SePrivilegeCheck
                         A14 SePrivilegeObjectAuditAlarm
                         A3C SeUnlockSubjectContext
                         A24 SeReleaseSubjectContext
                         81B RtlCreateAtomTable
                         7CF RtlAddAtomToAtomTable
                         936 RtlPinAtomInAtomTable
                         688 ObQueryNameInfo
                         67D ObGetObjectSecurity
                         9D7 SeAssignSecurity
                         694 ObReleaseObjectSecurity
                         696 ObSetSecurityDescriptorInfo
                         9F9 SeDeassignSecurity
                         96E RtlSetBits
                         7F7 RtlClearBits
                         66E ObAssignSecurity
                         876 RtlFormatCurrentUserKeyPath
                         817 RtlCopyUnicodeString
                         87E RtlFreeUnicodeString
                         7DE RtlAppendUnicodeToString
                         7DD RtlAppendUnicodeStringToString
                         94F RtlRaiseException
                         B08 ZwEnumerateValueKey
                         2CC InitSafeBootMode
                         16A ExUuidCreate
                         73E PsGetProcessImageFileName
                         737 PsGetProcessCreateTimeQuadPart
                         74D PsGetProcessStartKey
                         8B3 RtlInitAnsiString
                         7DA RtlAnsiStringToUnicodeString
                         944 RtlQueryPackageIdentity
                         710 PsDereferencePrimaryToken
                          8F EtwWrite
                         B6B ZwQueryVirtualMemory
                         675 ObDeleteCapturedInsertInfo
                         599 MmCreateSection
                         AE3 ZwCreateDirectoryObject
                         838 RtlDeleteRegistryValue
                         5FC NlsMbCodePageTag
                         5FA NlsAnsiCodePage
                         773 PsIsSystemThread
                         784 PsQueryProcessAttributesByToken
                         8B0 RtlImageNtHeader
                         740 PsGetProcessJob
                         733 PsGetJobUIRestrictionsClass
                         72E PsGetJobLock
                         74F PsGetProcessWin32WindowStation
                         116 ExRaiseAccessViolation
                         8F3 RtlIsMultiSessionSku
                         783 PsProcessType
                         80A RtlConvertSidToUnicodeString
                         70E PsDereferenceImpersonationToken
                         725 PsGetCurrentThreadProcessId
                         9C4 RtlWalkFrameChain
                          6F DbgPrintEx
                         776 PsIsWin32KFilterAuditEnabled
                         138 ExReleaseResourceLite
                          A4 ExAcquireResourceSharedLite
                         867 RtlFindMessage
                         474 KeDelayExecutionThread
                         778 PsIsWin32KFilterEnabled
                         81C RtlCreateAtomTableEx
                         7D0 RtlAddAtomToAtomTableEx
                         90D RtlLookupAtomInAtomTable
                         830 RtlDeleteAtomFromAtomTable
                         93B RtlQueryAtomInAtomTable
                         81F RtlCreateHeap
                         2D9 IoAllocateErrorLogEntry
                         428 IoWriteErrorLogEntry
                         111 ExQueryPoolBlockSize
                         8D2 RtlIntegerToUnicodeString
                          87 EtwEventEnabled
                         908 RtlLengthSid
                         5AF MmGetSystemRoutineAddress
                         421 IoWMIRegistrationControl
                         C26 vDbgPrintEx
                         2E8 IoBuildDeviceIoControlRequest
                         42E IofCallDriver
                         5EB MmSystemRangeStart
                         4AB KeInitializeMutex
                         50E KeReleaseMutex
                         3AF IoRegisterPlugPlayNotification
                         34D IoGetDeviceInterfaces
                         409 IoUnregisterPlugPlayNotificationEx
                          6E DbgPrint
                         5F8 MmUnsecureVirtualMemory
                         BB3 ZwUnmapViewOfSection
                         B0E ZwFreeVirtualMemory
                         7EB RtlCaptureStackBackTrace
                         5D7 MmPrefetchVirtualAddresses
                         89B RtlGetNtGlobalFlags
                         5E4 MmSecureVirtualMemory
                         72A PsGetCurrentThreadWin32ThreadAndEnterCriticalRegion
                         B59 ZwQueryInformationToken
                         36D IoGetStackLimits
                          CB ExDeleteLookasideListEx
                          F3 ExInitializeLookasideListEx
                         17A ExpInterlockedPushEntrySList
                         10F ExQueryDepthSList
                         179 ExpInterlockedPopEntrySList
                         961 RtlRunOnceBeginInitialize
                         962 RtlRunOnceComplete
                         AE9 ZwCreateKey
                         84E RtlEqualUnicodeString
                         99F RtlUnicodeStringToAnsiString
                         8AF RtlImageDirectoryEntryToData
                         878 RtlFreeAnsiString
                         900 RtlIsStateSeparationEnabled
                         9C7 RtlWriteRegistryValue
                         38A IoOpenDeviceRegistryKey
                         B06 ZwEnumerateKey
                         C37 wcsncpy_s
                         342 IoGetAttachedDeviceReference
                         2EA IoBuildSynchronousFsdRequest
                         34F IoGetDeviceObjectPointer
                         C20 swprintf_s
                         350 IoGetDeviceProperty
                         C30 wcscpy_s
                         7E9 RtlCapabilityCheckForSingleSessionSku
                         89C RtlGetNtProductType
                         8A4 RtlGetSuiteMask
                         B8C ZwSetEvent
                         B7B ZwResetEvent
                          A9 ExAcquireSharedStarveExclusive
                          A3 ExAcquireResourceExclusiveLite
                          D9 ExEnterPriorityRegionAndAcquireResourceShared
                         4A8 KeInitializeGuardedMutex
                         445 KeAcquireGuardedMutex
                         507 KeReleaseGuardedMutex
                         15A ExTryAcquirePushLockExclusiveEx
                         728 PsGetCurrentThreadTeb
                         C29 vsprintf_s
                         8CA RtlInsertElementGenericTableAvl
                         90F RtlLookupElementGenericTableAvl
                         832 RtlDeleteElementGenericTableAvl
                         919 RtlMultiByteToUnicodeN
                         9A7 RtlUnicodeToMultiByteN
                         153 ExSystemTimeToLocalTime
                         481 KeExpandKernelStackAndCallout
                         8C4 RtlInitializeGenericTableAvl
                         B20 ZwMapViewOfSection
                         847 RtlEnumerateGenericTableAvl
                         88D RtlGetDefaultCodePage
                         7F1 RtlCheckTokenMembership
                         906 RtlLengthRequiredSid
                         8C6 RtlInitializeSid
                         987 RtlSubAuthoritySid
                         814 RtlCopySid
                         821 RtlCreateSecurityDescriptor
                         81A RtlCreateAcl
                         7CE RtlAddAce
                         972 RtlSetDaclSecurityDescriptor
                         978 RtlSetSaclSecurityDescriptor
                         975 RtlSetOwnerSecurityDescriptor
                         974 RtlSetGroupSecurityDescriptor
                          C1 ExCompositionObjectType
                         468 KeClearEvent
                          F5 ExInitializePagedLookasideList
                          CD ExDeletePagedLookasideList
                          B5 ExAllocatePool3
                         5B5 MmIsDriverVerifyingByAddress
                         351 IoGetDevicePropertyData
                         AE6 ZwCreateFile
                         41C IoWMIOpenBlock
                         41B IoWMIHandleToInstanceName
                         41F IoWMIQuerySingleInstance
                         B00 ZwDeviceIoControlFile
                         AD5 ZwCancelIoFile
                         BB6 ZwWaitForSingleObject
                         738 PsGetProcessDebugPort
                         11B ExRawInputManagerObjectType
                         53E KeSetTimer
                         606 NtClose
                         AD7 ZwCancelTimer
                         BA0 ZwSetTimer
                         616 NtDeviceIoControlFile
                         34C IoGetDeviceInterfacePropertyData
                         30D IoCreateNotificationEvent
                         B4B ZwQueryDefaultUILanguage
                         145 ExSemaphoreObjectType
                         7E8 RtlCapabilityCheck
                         545 KeStackAttachProcess
                         555 KeUnstackDetachProcess
                         408 IoUnregisterPlugPlayNotification
                         B5F ZwQueryLicenseValue
                         B6F ZwReadFile
                         B74 ZwReleaseSemaphore
                         84C RtlEqualSid
                         A6F TtmNotifyDeviceArrival
                         A70 TtmNotifyDeviceDeparture
                         A71 TtmNotifyDeviceInput
                         6DB PoLatencySensitivityHint
                         461 KeBugCheck
                         9F0 SeConvertStringSecurityDescriptorToSecurityDescriptor
                         4FA KeReadStateEvent
                         AF2 ZwCreateSemaphore
                         B76 ZwRemoveIoCompletionEx
                         B02 ZwDuplicateObject
                         B54 ZwQueryInformationFile
                         B38 ZwOpenSymbolicLinkObject
                         B65 ZwQuerySymbolicLinkObject
                         689 ObQueryNameString
                         7C4 PsWow64GetProcessMachine
                         93D RtlQueryElevationFlags
                         A09 SeIsParentOfChildAppContainer
                         5FE NlsOemCodePage
                         573 LpcSendWaitReceivePort
                         BAD ZwUnloadDriver
                         B18 ZwLoadDriver
                         8AA RtlGetVersion
                          B8 ExAllocatePoolWithTag
                         30A IoCreateFile
                         433 KdDebuggerEnabled
                         762 PsGetVersion
                         68C ObReferenceObjectByHandleWithTag
                         69C ObfDereferenceObjectWithTag
                         849 RtlEnumerateGenericTableWithoutSplaying
                         831 RtlDeleteElementGenericTable
                         90E RtlLookupElementGenericTable
                         8C9 RtlInsertElementGenericTable
                         8C3 RtlInitializeGenericTable
                         2CD InitializeSListHead
                         178 ExpInterlockedFlushSList
                         747 PsGetProcessSequenceNumber
                         5BC MmLoadSystemImage
                         5ED MmUnloadSystemImage
                         7DC RtlAppendStringToString
                         769 PsIsCurrentThreadInServerSilo
                         72D PsGetHostSilo
                         704 PsAttachSiloToCurrentThread
                         712 PsDetachSiloFromCurrentThread
                         802 RtlCompareUnicodeStrings
                          8D EtwTelemetryCoverageReport
                         460 KeAttachProcess
                         A0A SeLocateProcessImageName
                         47A KeDetachProcess
                         9B1 RtlUpcaseUnicodeString
                         7C8 RtlAddAccessAllowedAce
                         B9C ZwSetSecurityObject
                         AC2 ZwAlpcConnectPortEx
                           3 AlpcInitializeMessageAttribute
                           2 AlpcGetMessageAttribute
                         166 ExUnregisterCallback
                         AD1 ZwAlpcSendWaitReceivePort
                         AC0 ZwAlpcCancelMessage
                         ABF ZwAlpcAcceptConnectPort
                         984 RtlStringFromGUID
                         AC3 ZwAlpcCreatePort
                         AD2 ZwAlpcSetInformation
                          C6 ExCreateCallback
                         120 ExRegisterCallback
                          C5 ExCoreMessagingObjectType
                         4C4 KeIsExecutingDpc
                         14A ExSetTimer
                         13D ExReleaseSpinLockExclusive
                          CF ExDeleteTimer
                         494 KeGetCurrentIrql

    HAL.dll
             1C02D9000 Import Address Table
             1C02DA150 Import Name Table
                     0 time date stamp
                     0 Index of first forwarder reference

                          54 KeQueryPerformanceCounter

  Section contains the following exports for win32kbase.sys

    00000000 characteristics
    C9A2CBB3 time date stamp
        0.00 version
           1 ordinal base
        2548 number of functions
        2548 number of names

    ordinal hint RVA      name

          1    0 00013720 ??0BRUSHMEMOBJ@@QEAA@KKHH@Z
          2    1 00066030 ??0BRUSHMEMOBJ@@QEAA@PEAUHBITMAP__@@0HKKH@Z
          3    2 000B5ED0 ??0CAutoMutex@OPM@@QEAA@PEAVCMutex@1@@Z
          4    3 000A2AF0 ??0CHMRefHwndByHandle@@QEAA@PEAUHWND__@@_N111@Z
          5    4 000157E0 ??0CInputDest@@QEAA@AEBUtagINPUTDEST@@@Z
          6    5 0000CD80 ??0CInputDest@@QEAA@AEBV0@@Z
          7    6 000DF040 ??0CMonitorPDO@OPM@@QEAA@AEAU_LUID@@KPEAJ@Z
          8    7 00085230 ??0CMutex@OPM@@QEAA@PEAJ@Z
          9    8 0004BB60 ??0DCMEMOBJ@@QEAA@AEAVDCOBJ@@@Z
         10    9 000DD280 ??0EXFORMOBJ@@QEAA@KK@Z
         11    A 00015D20 ??0PATHMEMOBJ@@QEAA@XZ
         12    B 000924E0 ??0PDEVOBJ@@QEAA@PEAU_LDEV@@PEAU_devicemodeW@@PEAG22PEAXPEAUtagREMOTETYPEONENODE@@PEAU_GDIINFO@@PEAUtagDEVINFO@@HKK@Z
         13    C 000132D0 ??0RGNMEMOBJ@@QEAA@HH@Z
         14    D 0002F7F0 ??0RGNMEMOBJ@@QEAA@K@Z
         15    E 000B78A0 ??0RGNMEMOBJ@@QEAA@W4DestructorDisposition@0@@Z
         16    F 00037BB0 ??0RGNMEMOBJ@@QEAA@XZ
         17   10 0003C1C0 ??0RGNOBJAPI@@QEAA@PEAUHRGN__@@H@Z
         18   11 00053750 ??0SPRITELOCK@@QEAA@AEAVPDEVOBJ@@@Z
         19   12 000C0DC0 ??1CAutoMutex@OPM@@QEAA@XZ
         20   13 000A5530 ??1CHMRefHwndByHandle@@QEAA@XZ
         21   14 001CFCD0 ??1CInputDest@@QEAA@XZ
         22   15 00180F50 ??1CMonitorPDO@OPM@@UEAA@XZ
         23   16 000D6500 ??1CMutex@OPM@@QEAA@XZ
         24   17 000AC050 ??1DCMEMOBJ@@QEAA@XZ
         25   18 0004E650 ??1PALMEMOBJ@@QEAA@XZ
         26   19 000517D0 ??1PATHMEMOBJ@@QEAA@XZ
         27   1A 000B06B0 ??1SPRITELOCK@@QEAA@XZ
         28   1B 0004DC50 ??1SURFMEM@@QEAA@XZ
         29   1C 001908D0 ??1TargetInfo@CHwndTargetProp@@QEAA@XZ
         30   1D 0015B690 ??4CHMRefHwndByHandle@@QEAAAEAV0@AEBV0@@Z
         31   1E 000F61F0 ?AccessProceduresStream@@YAHPEAUtagKE@@KH@Z
         32   1F 000F6270 ?AccessTimeOut@@YAXXZ
         33   20 00081DA0 ?AccessTimeOutReset@@YAXXZ
         34   21 000C7B30 ?AddLSurf@SURFACE@@QEAAXPEAVSFMLOGICALSURFACE@@@Z
         35   22 000BF580 ?AddNotificationToken@SfmTokenArray@@QEAAJPEAU_D3DKMT_PRESENTHISTORYTOKEN@@@Z
         36   23 00228F20 ?AddRef@CompositionObject@@QEBAJXZ
         37   24 001D4840 ?AddThreadPointerData@CTouchProcessor@@QEAAHPEAUtagTHREADINPUTPOINTERLIST@@GK_KIUtagINPUTDEST@@H@Z
         38   25 001D4C10 ?AddThreadPointerHookData@CTouchProcessor@@QEAAHPEAUtagTHREADINPUTPOINTERLIST@@GK_KIUtagINPUTDEST@@@Z
         39   26 001D4D70 ?AdjustCaptureOnRetrieval@CTouchProcessor@@QEAAXUtagINPUTDEST@@I_KHHHHI@Z
         40   27 001D4EB0 ?AdjustEdgyFrameInputDest@CTouchProcessor@@QEAAXPEAXUtagINPUTDEST@@@Z
         41   28 00092FA0 ?Allocate@PDEV@@SAPEAV1@H@Z
         42   29 00032B00 ?AllocateRegion@RGNMEMOBJ@@SAPEAVREGION@@K@Z
         43   2A 0006E7B0 ?ApplyBoost@GroupedProcessForegroundBoost@@YAXPEBUtagWND@@@Z
         44   2B 0006E790 ?ApplyDeBoost@GroupedProcessForegroundBoost@@YAXPEBUtagWND@@@Z
         45   2C 000D9710 ?ApplyGatheredKeyboardDeviceCount@CKeyboardProcessor@@QEAAXK@Z
         46   2D 000CC740 ?AssignAttachQueue@tagTHREADINFO@@QEAAPEAUtagQ@@PEAU2@@Z
         47   2E 000CF0F0 ?AssignQueue@tagTHREADINFO@@QEAAPEAUtagQ@@PEAU2@@Z
         48   2F 00058AB0 ?BoundPoint@CCursorClip@@QEAA?AW4ClipResult@@UtagPOINT@@W4BoundPointOptions@@W4InputTracing_MouseUpdatePositionReason@@PEAU3@@Z
         49   30 001D5670 ?BreakEditionParentNotifyLoop@CTouchProcessor@@QEAAHPEAX@Z
         50   31 00081E00 ?CalculateMouseTable@@YAXXZ
         51   32 001F31B0 ?CallUserModeLockFree@InputExtensibilityCallout@@QEAAXPEAU_CLIENT_DEVICE_NOTIFICATION@@@Z
         52   33 000D2CA0 ?CancelActivePointers@CTouchProcessor@@QEAAXXZ
         55   34 0015CB60 ?CheckProcessForeground@ForegroundManagement@@YA_NK@Z
         56   35 000D2D20 ?CleanupInputDestHwndRefsForDesktopThreadExit@CTouchProcessor@@QEAAXXZ
         57   36 000D2BF0 ?CleanupManipulationThreadData@CTouchProcessor@@QEAAXXZ
         58   37 000589D0 ?ClearClip@CCursorClip@@QEAAXXZ
         59   38 00009830 ?ClearPtiLastWoken@CInputGlobals@@QEAAXXZ
         60   39 000C8C50 ?ClearSystemVisual@CHwndTargetProp@@QEAAHW4_HwndTargetType@@@Z
         61   3A 00088C70 ?Close@IOCPDispatcher@@QEAAX_N@Z
         62   3B 000676C0 ?CompareToCurrent@CMonitorTopology@@QEBA?AW4CompareResult@1@XZ
         63   3C 000D5E10 ?Create@LegacyInputDispatcher@@SAJPEAPEAV1@@Z
         64   3D 0009CA00 ?CreateHandle@CompositionObject@@QEBAJK_NDPEAPEAX@Z
         67   3E 000D6150 ?CreateSessionGlobal@CInputManager@@SAJXZ
         70   3F 0017FCF0 ?DbgPrintGDI@@YAXPEADZZ
         71   40 002AEBE0 ?DcAttrDefault@@3UDC_ATTR_KM@@A
         72   41 000C80B0 ?DeInitialize@SfmTokenArray@@QEAAXXZ
         73   42 00182570 ?DecrementClientReferenceCount@PDEV@@QEAAKXZ
         74   43 001DB130 ?DelegateCapture@CTouchProcessor@@QEAA?AUtagINPUTDEST@@GKH@Z
         75   44 001DB470 ?DelegateCoalescePointerMessage@CTouchProcessor@@QEAAH_KHHHI@Z
         76   45 001DB700 ?DelegateImplictCaptureAndReleaseIfNeeded@CTouchProcessor@@QEAAX_K@Z
         77   46 000C8C00 ?Delete@CHwndTargetProp@@UEAAXXZ
         78   47 00181070 ?Destroy@CMonitorPDO@OPM@@UEAAJXZ
         79   48 000D8130 ?DestroySessionGlobal@CInputManager@@SAXXZ
         83   49 00020A70 ?Dispatch@IOCPDispatcher@@QEAAXW4WaitCompletionPacketPurpose@@K@Z
         84   4A 001DBE40 ?DispatchFramePostDelayZoneProcessingAndGetNext@CTouchProcessor@@QEAAPEAXPEAX@Z
         85   4B 001DC380 ?DoDeferredPointerActivate@CTouchProcessor@@QEAAXUtagINPUTDEST@@_K@Z
         86   4C 000DE3C0 ?DoesCurrentProcessOwnProtectedOutput@CMonitorPDO@OPM@@QEBAEXZ
         87   4D 00181160 ?DoesProcessOwnProtectedOutput@CMonitorPDO@OPM@@QEBAEPEAX@Z
         88   4E 001F2D20 ?EnableSpeedBump@CCursorClip@@QEAAX_N@Z
         89   4F 00093680 ?EngDeletePaletteInternal@@YAHPEAUHPALETTE__@@K@Z
         90   50 00007180 ?Enter@EnterLeaveCritMitRitHandOffHazard@@AEAAXXZ
         91   51 001F3F40 ?EnterGuard@CInpLockGuard@@QEAAXXZ
         92   52 0007F510 ?EnumDevices@CBaseInput@@QEBAXPEAXP6A_NQEAUDEVICEINFO@@0@Z@Z
         93   53 0007F5A0 ?EnvironmentChanged@CPTPProcessor@@SAXXZ
         94   54 001F8BE0 ?ExecuteTimer@CAccessibilityTimer@@SAXW4_ACCESSIBILITY_TIMERS@@@Z
         95   55 001D01B0 ?FilterKeys@@YAHPEAUtagKE@@KH@Z
         96   56 00005630 ?FindDeviceInfo@CBaseInput@@QEBAPEAUDEVICEINFO@@PEAXH@Z
         97   57 001DCC90 ?ForwardInertiaFrameToManipulationThread@CTouchProcessor@@SAXPEBUCPointerInputFrame@@@Z
         98   58 000104C0 ?ForwardInputToISM@CKeyboardProcessor@@SAX_NGGGPEAXK0_KPEAU_KEYBOARD_VIRTUAL_DEVICE_INFO@@@Z
         99   59 001F29A0 ?ForwardInputToKeyboardOverrider@CKeyboardProcessor@@SAX_NGGGPEAXKGPEAU_KEYBOARD_VIRTUAL_DEVICE_INFO@@@Z
        100   5A 001DCCC0 ?ForwardInputToManipulationThread@CTouchProcessor@@QEAAXPEBUCPointerInputFrame@@W4MIT_INPUT_INTEROP_CALLBACK@@@Z
        101   5B 00090F60 ?Free@PDEV@@SAXPEAV1@H@Z
        102   5C 002A84A0 ?G_fServiceSession@@3HA
        103   5D 000DF540 ?GetClip@CCursorClip@@QEBA?AUtagRECT@@XZ
        104   5E 000F66B0 ?GetContactVisualizationPointerEventInt@CTouchProcessor@@QEAAPEBUtagPOINTEREVENTINT@@PEAXPEAH@Z
        105   5F 0015EA10 ?GetContentRects@CContentRects@@SA_NIPEAUtagRECT@@PEAI@Z
        106   60 000D9B60 ?GetCurrent@CTopologyManager@@SAPEAVCMonitorTopology@@XZ
        107   61 001F3370 ?GetDimmedState@CInputGlobals@@QEBA_NXZ
        108   62 001F33D0 ?GetDisplayOnState@CInputGlobals@@QEBA_NXZ
        109   63 00058240 ?GetDomainLockRef@@YAAEAUtagDomLock@@W4DomainLockType@@@Z
        110   64 00094170 ?GetFirstLSurf@SURFACE@@QEAAPEAVSFMLOGICALSURFACE@@XZ
        111   65 0015CE90 ?GetForegroundWindow@ForegroundManagement@@YAPEAUHWND__@@XZ
        112   66 000F66F0 ?GetFrameIdFromPointerMsgId@CTouchProcessor@@QEAAK_K@Z
        113   67 0006A890 ?GetGlobalTickCount@CInputGlobals@@QEBA_KW4INPUT_GLOBALS_TICK_COUNT@@@Z
        114   68 00193230 ?GetHidVidPidStrings@RimTelemetry@@SAXQEAURIMDEV@@PEAU_UNICODE_STRING@@1@Z
        115   69 001E03A0 ?GetHwndReference@CTouchProcessor@@QEAAPEAUHWND__@@_KPEAGPEAI@Z
        116   6A 0015B6B0 ?GetInputFlags@CompositionInputObject@@QEBA?AW4CompositionInputFlags@@XZ
        117   6B 000E8FC0 ?GetInstance@CInertiaManager@@SAPEAV1@XZ
        118   6C 00075FF0 ?GetKernelHandleToRimObj@CHidInput@@QEAAJPEAPEAX@Z
        119   6D 00012B10 ?GetLastInputTime@CInputGlobals@@QEBA_KXZ
        120   6E 001F3430 ?GetLastInputType@CInputGlobals@@QEBA?AW4_LINP_SOURCE@@XZ
        121   6F 000677C0 ?GetMonitorFromId@CMonitorTopology@@SAPEAUtagMONITOR@@AEBUMonitorId@1@@Z
        122   70 001E0490 ?GetMsgPointerIdFromEdition@CTouchProcessor@@QEAAG_K@Z
        123   71 00055DE0 ?GetNotificationTokens@SfmTokenArray@@QEAAJIPEAIPEAU_D3DKMT_PRESENTHISTORYTOKEN@@@Z
        124   72 0015ECE0 ?GetObjTypeDomainLockRef@@YAAEAUtagDomLock@@PEAX@Z
        125   73 001E0680 ?GetPointerBarrelVisualization@CTouchProcessor@@QEAAHG@Z
        126   74 000F6800 ?GetPointerCapture@CTouchProcessor@@QEAAX_KHPEAPEAXPEAH@Z
        127   75 001E0780 ?GetPointerCursorIdFromMsgData@CTouchProcessor@@QEAAH_KPEAK@Z
        128   76 001E0820 ?GetPointerData@CTouchProcessor@@QEAAH_KKIPEAUtagPOINTER_INFO@@@Z
        129   77 001E0AF0 ?GetPointerDataQPCTimeList@CTouchProcessor@@QEAAH_KIPEA_KPEAH@Z
        130   78 001E0F50 ?GetPointerDataTimes@CTouchProcessor@@QEAAH_KIPEAUTELEMETRY_POINTER_FRAME_TIMES@@@Z
        131   79 001E13E0 ?GetPointerDataWithHistory@CTouchProcessor@@QEAAH_KKKPEAIPEAE@Z
        132   7A 001E1810 ?GetPointerDownFrame@CTouchProcessor@@QEAAK_K@Z
        133   7B 001E1A60 ?GetPointerFrameDataWithHistory@CTouchProcessor@@QEAAH_KKHKPEAI1PEAE@Z
        134   7C 001E2380 ?GetPointerInfo@CTouchProcessor@@QEAAPEBUtagPOINTER_INFO@@PEBUCPointerInputFrame@@K@Z
        135   7D 001E23F0 ?GetPointerInfo@CTouchProcessor@@QEAAPEBUtagPOINTER_INFO@@_K@Z
        136   7E 001E2BC0 ?GetPointerMessageInfo@CTouchProcessor@@QEAAH_KHPEAPEAUHWND__@@PEAH2PEAKPEAI@Z
        137   7F 001E2F10 ?GetPointerMessagePoint@CTouchProcessor@@QEAAHGPEAUtagPOINT@@@Z
        138   80 001E3560 ?GetPointerRawDataWithHistory@CTouchProcessor@@QEAAH_KIIPEBUtagPOINTER_DEVICE_PROPERTY@@IPEAJ@Z
        139   81 001E4720 ?GetPointerVisualization@CTouchProcessor@@QEAAHGPEAH@Z
        140   82 001FC060 ?GetPrimaryRegion@Mouse@InputConfig@@SA?AUCInputSpaceRegion@@XZ
        141   83 001F67A0 ?GetProcessor@CPTPProcessorFactory@@SAPEAVCPTPProcessor@@PEAUDEVICEINFO@@@Z
        142   84 00020920 ?GetPtiLastWoken@CInputGlobals@@QEBAPEAUtagTHREADINFO@@XZ
        143   85 000CBDF0 ?GetPtiLastWokenHotKey@CInputGlobals@@QEBAPEAUtagTHREADINFO@@XZ
        144   86 000F6A90 ?GetThreadPointerData@CTouchProcessor@@QEAA_KPEAUtagTHREADINPUTPOINTERLIST@@GPEAKPEAHPEAPEAUHWND__@@@Z
        145   87 0000B0A0 ?GetThreadsWithPKL@@YAIPEAPEAPEAUtagTHREADINFO@@PEAU_TL@@PEAUtagKL@@@Z
        146   88 001E4A80 ?GetTouchProcessorLock@CTouchProcessor@@QEAAAEAUCInpLockGuard@@XZ
        147   89 001FCA40 ?GetTransform@CDesktopInputSink@@SA_NPEAUtagINPUT_TRANSFORM@@@Z
        148   8A 000245C0 ?GetUnionRegion@Mouse@InputConfig@@SA?AUCInputSpaceRegion@@XZ
        149   8B 00041280 ?GetUserAttr@XDCOBJ@@AEAAPEAU_DC_ATTR@@XZ
        150   8C 000E8C80 ?GetWakeOnDeviceTypes@CInputGlobals@@QEBA?AW4InputType@@XZ
        151   8D 00002080 ?GetWindowForInputType@CompositionInputObject@@QEBAJW4CompositionInputType@@PEAPEAUHWND__@@@Z
        152   8E 002B2F88 ?GreEngLoadModuleAllocList@@3U_LIST_ENTRY@@A
        153   8F 002AF9B8 ?GreEngLoadModuleAllocListLock@@3PEAUHSEMAPHORE__@@EA
        154   90 00076B50 ?HandleDirectStartStopDeviceReadRequest@CHidInput@@QEAAXXZ
        155   91 000E3CA0 ?HandlePTPTelemetry@Usage@PTPTelemetry@@SAXXZ
        156   92 00077AE0 ?HandleTSRequest@CBaseInput@@QEAAXW4InputTSRequest@@@Z
        157   93 001D0480 ?HighContrastHotKey@@YAHPEAUtagKE@@KH@Z
        159   94 00280DA8 ?INVALID_MONITOR_HANDLE@OPM@@3QEAXEA
        160   95 0015D450 ?IdenticalToCurrent@CMonitorTopology@@QEBA_NXZ
        161   96 000E81A0 ?IncrementClientReferenceCount@PDEV@@QEAAXXZ
        162   97 001F3F80 ?IncrementWaiters@CInpLockGuard@@QEAAXXZ
        163   98 001F94E0 ?InertiaSourceFromPointerType@CInertiaManager@@SA?AW4INERTIA_SOURCE@@K@Z
        164   99 000D18A0 ?Initialize@LegacyInputDispatcher@@QEAAJD_NIIPEAULegacyDispatcherObject@@@Z
        165   9A 000B92A0 ?Initialize@SfmTokenArray@@QEAAXXZ
        166   9B 000D8CA0 ?InitializeScanLookAsideList@RGNMEMOBJ@@SAHXZ
        167   9C 00076740 ?InitializeSensor@CBaseInput@@QEAAJXZ
        168   9D 0015F200 ?InverseTransformPoint@@YA?AUTransformedPoint@@AEBU1@AEBUtagINPUT_TRANSFORM@@@Z
        169   9E 001FC140 ?IsConfigured@CInputConfig@@QEAA_NXZ
        170   9F 000DEFD0 ?IsDestroyed@CMonitorPDO@OPM@@UEAAEXZ
        172   A0 0015F500 ?IsIdentityTransform@@YA_NAEBUtagINPUT_TRANSFORM@@@Z
        173   A1 000CB590 ?IsImplicit@CompositionInputObject@@QEBAHXZ
        174   A2 001E55D0 ?IsPointerMessageTouchpad@CTouchProcessor@@QEAAHPEAUtagTHREADINFO@@_KG@Z
        175   A3 001E5700 ?IsPointerMsgRedirected@CTouchProcessor@@QEAAH_KPEAH@Z
        176   A4 001E57E0 ?IsPointerPrimary@CTouchProcessor@@QEAAH_K@Z
        177   A5 001E5830 ?IsPointerWindowFrameMessage@CTouchProcessor@@QEAAH_KPEAUHWND__@@I_JH@Z
        178   A6 0015BC00 ?IsProcessPriorityByClassBackground@ForegroundBoost@@YA_NPEBUtagPROCESSINFO@@@Z
        179   A7 001CFEB0 ?IsRawMouseSubscriber@CInputDest@@QEBA_NXZ
        180   A8 000B18B0 ?IsTimeFromLastInputEvent@CInputGlobals@@QEBA_NK@Z
        181   A9 001F8DA0 ?KillTimer@CAccessibilityTimer@@SA_NW4_ACCESSIBILITY_TIMERS@@@Z
        182   AA 001F3F90 ?LeaveGuard@CInpLockGuard@@QEAAXXZ
        183   AB 001F4020 ?LeaveGuardOnDwmWerStart@CInpLockGuard@@QEAAXXZ
        184   AC 000D2E40 ?LeaveGuardOnThreadTermination@CInpLockGuard@@QEAAXXZ
        185   AD 001F4070 ?LeaveGuardOnWerStart@CInpLockGuard@@QEAAXXZ
        186   AE 000B5F00 ?Lock@CMutex@OPM@@QEAAXXZ
        187   AF 000D2EE0 ?LockExclusive@CInpLockGuard@@QEAAXAEAVCRefUnRefPointerMsgId@@AEAVCDomainLockAssistant@@@Z
        188   B0 00022120 ?LockExclusive@CInpPushLock@@QEAAXXZ
        189   B1 00059920 ?LockExclusive@tagDomLock@@QEBAXXZ
        190   B2 000A4080 ?LockExclusive@tagObjLock@@QEBAXXZ
        191   B3 001F40E0 ?LockExclusiveWithoutGuard@CInpLockGuard@@QEAAXXZ
        192   B4 00012B70 ?LockFocusWnd@tagQ@@QEAAPEAUtagWND@@PEAU2@W4_LockOptions@@@Z
        193   B5 000AFE60 ?LockForRead@CompositionInputObject@@QEBAJPEAPEBVCInputSink@@@Z
        194   B6 000AFD50 ?LockForWrite@CompositionInputObject@@QEAAJPEAPEAVCInputSink@@@Z
        195   B7 000CED80 ?LockInitialize@tagDomLock@@QEBAJXZ
        196   B8 000B92A0 ?LockInitialize@tagObjLock@@QEBAXXZ
        197   B9 000B92A0 ?LockInitializeProcessCreator@tagObjLock@@QEBAXXZ
        198   BA 000B92A0 ?LockInitializeThreadCreator@tagObjLock@@QEBAXXZ
        199   BB 001F4120 ?LockShared@CInpLockGuard@@QEAAXAEAVCRefUnRefPointerMsgId@@AEAVCDomainLockAssistant@@@Z
        200   BC 000C9AA0 ?LockShared@CInpPushLock@@QEAAXXZ
        201   BD 000A76A0 ?LockShared@tagDomLock@@QEBAXXZ
        202   BE 00160370 ?LockShared@tagObjLock@@QEBAXXZ
        203   BF 000A76A0 ?LockSharedWithoutGuard@CInpLockGuard@@QEAAXXZ
        204   C0 00089640 ?LockUnInitialize@tagDomLock@@QEBAXXZ
        205   C1 000AD750 ?LockUnInitialize@tagObjLock@@QEBAX_N@Z
        206   C2 000AD750 ?LockUnInitializeProcessCreator@tagObjLock@@QEBAXXZ
        207   C3 000AD750 ?LockUnInitializeThreadCreator@tagObjLock@@QEBAXXZ
        208   C4 001D0530 ?MKButtonSelect@@YAHG@Z
        209   C5 00081DE0 ?MKHideMouseCursor@@YAXXZ
        210   C6 001D0560 ?MKShowMouseCursor@@YAXXZ
        211   C7 000A3260 ?Map@SURFACE@@QEAA?AW4SurfaceMapStatus@1@PEAXPEAVDC@@@Z
        212   C8 001F3490 ?MarkLastInputAsJournalling@CInputGlobals@@QEAAXXZ
        213   C9 001E5B30 ?MarkPointerMessageGenerated@CTouchProcessor@@QEAAXI_JHPEAX@Z
        214   CA 001D05C0 ?MouseKeys@@YAHPEAUtagKE@@KH@Z
        215   CB 002AF9C0 ?MultiUserEngAllocListLock@@3PEAUHSEMAPHORE__@@EA
        216   CC 002B2F98 ?MultiUserGreEngAllocList@@3U_LIST_ENTRY@@A
        217   CD 00280DB0 ?NOT_ALERTABLE@OPM@@3EB
        218   CE 001E5DF0 ?NotifyCaptureChangedIfCaptured@CTouchProcessor@@QEAAPEAUtagINPUTDEST@@_KPEAU2@@Z
        219   CF 001E5F90 ?NotifyCaptureChangedIfCapturedDelegate@CTouchProcessor@@QEAAPEAUtagINPUTDEST@@_KPEAU2@PEAG@Z
        220   D0 00253B50 ?NotifyDwmInputThreadShutdown@CInputManager@@SAXPEAU_ETHREAD@@@Z
        223   D1 000E8FB0 ?OnSettingsAvailable@PTPTelemetry@@SAXXZ
        224   D2 001F71A0 ?OnUserLogin@PTPTelemetry@@SAXXZ
        225   D3 000AB210 ?OpenDwmHandle@CompositionInputObject@@QEBAJPEAPEAX@Z
        226   D4 000AB3F0 ?OpenDwmHandle@CompositionObject@@QEBAJPEAPEAX@Z
        227   D5 0015B6C0 ?PopulateCustomDispatcherObjectsArray@IOCPDispatcher@@UEAAJIPEAPEAX@Z
        228   D6 001F3A80 ?PopulateCustomDispatcherObjectsArray@LegacyInputDispatcher@@UEAAJIPEAPEAX@Z
        229   D7 001F3C50 ?PopulateDispatcherObjectWithCustomInputEvents@CBaseInput@@QEAAJAEAVCEventBitmap@@PEAVIRegisterInputDispatcherObjects@@@Z
        230   D8 001E7800 ?PrepareMakePointerMessage@CTouchProcessor@@QEAAPEBUtagPOINTER_INFO@@_KPEAUtagPOINT@@PEAH22@Z
        232   D9 000F72C0 ?ProcessMouseQueue@CPTPProcessor@@SAXXZ
        233   DA 001FB2B0 ?ProcessPTPMouseInput@CHidInput@@QEAAXPEAXPEAU_MOUSE_INPUT_DATA@@_K2K@Z
        234   DB 001EA230 ?PromotePointerDataToMouse@CTouchProcessor@@QEAAH_KK@Z
        235   DC 000D9250 ?PurgeInputDispatcherObjects@LegacyInputDispatcher@@QEAAXXZ
        236   DD 001F9950 ?QueryInertia@CInertiaManager@@QEBAPEBUINERTIA_INFO_INTERNAL@@UtagPOINT@@W4INERTIA_SOURCE@@@Z
        237   DE 00078FA0 ?Read@CBaseInput@@QEAAJXZ
        238   DF 000F6F20 ?RefPointerMsgIdAndUnLock@CInpLockGuard@@QEAAXAEAVCRefUnRefPointerMsgId@@@Z
        239   E0 001EA5A0 ?ReferenceFrameFromPointerMsgId@CTouchProcessor@@QEAAPEBUCPointerInputFrame@@_K@Z
        240   E1 001EAA30 ?ReferenceMsgDataExternal@CTouchProcessor@@QEAAX_KW4tagPOINTERMSGDATA_REFTYPE@@PEAX@Z
        241   E2 00076C40 ?RegisterDispatcherObject@CBaseInput@@QEAAJPEAVIRegisterInputDispatcherObjects@@@Z
        242   E3 000D0140 ?RegisterInputDispatcherObjects@IOCPDispatcher@@UEAAJPEAXIPEAUInputDispatcherObject@@@Z
        243   E4 00076240 ?RegisterInputDispatcherObjects@LegacyInputDispatcher@@UEAAJPEAXIPEAUInputDispatcherObject@@@Z
        244   E5 00086C40 ?RegisterThreadDispatcherObject@IOCPDispatcher@@QEAAXPEAX@Z
        245   E6 00086BB0 ?RegisterThreadDispatcherObjectWithCallback@IOCPDispatcher@@QEAAXPEAXP6AX0@Z0@Z
        246   E7 000C2610 ?Release@CompositionObject@@QEBA_JXZ
        247   E8 000D9AC0 ?ReleaseAllWaiters@EnterLeaveCritMitRitHandOffHazard@@SAXXZ
        248   E9 000C8FA0 ?RemoveLSurf@SURFACE@@QEAAXPEAVSFMLOGICALSURFACE@@@Z
        249   EA 000B0570 ?ResolveHandle@CompositionInputObject@@KAJPEAXKDPEAPEAU1@@Z
        250   EB 00045850 ?RestoreAttributes@DC@@QEAAXPEAU_DC_ATTR@@@Z
        251   EC 0003D100 ?SaveAttributes@DC@@QEAAHPEAU_DC_ATTR@@@Z
        252   ED 001FC570 ?SearchAndSetKbdTbl@@YAXPEAUDEVICEINFO@@KK@Z
        253   EE 00081D70 ?SetAccessEnabledFlag@@YAXXZ
        254   EF 00181460 ?SetCachedDpiScaleValue@DC@@QEAAXJ@Z
        255   F0 001F2EB0 ?SetClip@CCursorClip@@QEAAXUtagRECT@@@Z
        256   F1 001F34E0 ?SetDimmedState@CInputGlobals@@QEAAX_N@Z
        257   F2 001F3530 ?SetDisplayOnState@CInputGlobals@@QEAAX_N@Z
        258   F3 000C6BC0 ?SetForegroundPriority@ForegroundBoost@@YAXPEBUtagTHREADINFO@@W4ForegroundPriorityClass@1@@Z
        259   F4 000D2880 ?SetGlobalCursorLevel@@YAXH@Z
        260   F5 001F3580 ?SetGlobalTickCount@CInputGlobals@@QEAAXW4INPUT_GLOBALS_TICK_COUNT@@_K@Z
        261   F6 001EC710 ?SetPointerBarrelVisualization@CTouchProcessor@@QEAAXGH@Z
        262   F7 001ECB20 ?SetPointerFrameTargetWindows@CTouchProcessor@@QEAAHPEAUtagTHREADINFO@@_KIPEAH@Z
        263   F8 001EDE60 ?SetPointerInfoNodeFlagFromEdition@CTouchProcessor@@QEAAHKGI@Z
        264   F9 001EE630 ?SetPointerVisualization@CTouchProcessor@@QEAAHGHPEAHH@Z
        265   FA 000C7860 ?SetPtiLastWoken@CInputGlobals@@QEAAXPEAUtagTHREADINFO@@_N@Z
        266   FB 000C98A0 ?SetSystemVisual@CHwndTargetProp@@QEAAJW4_HwndTargetType@@PEAUCompositionObject@@@Z
        267   FC 001F8DF0 ?SetTimer@CAccessibilityTimer@@SA?AW4_ACCESSIBILITY_TIMERS@@KP6AXPEAUtagWND@@I_K_J@ZH@Z
        268   FD 001D0780 ?StopFilterKeysTimers@@YAXXZ
        269   FE 000E8B30 ?SuppressDeadzoneContactsInFrameAndGetNext@CTouchProcessor@@QEAAPEAXPEAXAEBUDEVICE_OUTPUT_CONFIG@@AEBUtagPOINTER_INFO@@@Z
        270   FF 001EF1A0 ?ThreadHasPrimaryCaptureExternal@CTouchProcessor@@QEAAHQEAUtagTHREADINFO@@G@Z
        271  100 000CCC20 ?TmpGetDeviceList@CBaseInput@@QEAAPEAUDEVICEINFO@@XZ
        272  101 000CCEC0 ?TmpGetLock@CBaseInput@@QEAAAEAUCInpPushLock@@XZ
        273  102 001D07D0 ?ToggleKeys@@YAHPEAUtagKE@@KH@Z
        274  103 000BF4D0 ?TransferTokens@SfmTokenArray@@QEAAJPEAV1@@Z
        275  104 0015FEC0 ?TransformPoint@@YA?AUTransformedPoint@@AEBU1@AEBUtagINPUT_TRANSFORM@@@Z
        276  105 001D0950 ?TurnOffMouseKeys@@YAXXZ
        277  106 000D3030 ?UnLock@CInpLockGuard@@QEAAXAEAVCRefUnRefPointerMsgId@@@Z
        278  107 0007C4C0 ?UnLockExclusive@CInpPushLock@@QEAAXXZ
        279  108 000A6760 ?UnLockExclusive@tagDomLock@@QEBAXXZ
        280  109 0007C4C0 ?UnLockExclusive@tagObjLock@@QEBAXXZ
        281  10A 000CB640 ?UnLockShared@CInpPushLock@@QEAAXXZ
        282  10B 000A6760 ?UnLockShared@tagDomLock@@QEBAXXZ
        283  10C 001603B0 ?UnLockShared@tagObjLock@@QEBAXXZ
        284  10D 001F4740 ?UnLockWithoutGuard@CInpLockGuard@@QEAAXXZ
        285  10E 001F4770 ?UnRefPointerMsgIdAndLockExclusive@CInpLockGuard@@QEAAXAEAVCRefUnRefPointerMsgId@@AEAVCDomainLockAssistant@@@Z
        286  10F 001812C0 ?Unlock@CMutex@OPM@@QEAAXXZ
        287  110 000AFCC0 ?UnlockAndRelease@CInputSink@@QEBA_NXZ
        288  111 000BC050 ?UnlockFocusWnd@tagQ@@QEAAPEAUtagWND@@XZ
        289  112 001EFCE0 ?UnreferenceFrameExternal@CTouchProcessor@@QEAAXPEBUCPointerInputFrame@@@Z
        290  113 001EFF10 ?UnreferenceMsgDataExternal@CTouchProcessor@@QEAAX_KW4tagPOINTERMSGDATA_REFTYPE@@PEAX@Z
        291  114 001F01D0 ?UnreferenceUndispatchedFrame@CTouchProcessor@@QEAAXPEAU_LIST_ENTRY@@@Z
        292  115 00066F40 ?UpdateCurrent@CTopologyManager@@SAXXZ
        293  116 0006E730 ?UpdateGlobalTickCount@CInputGlobals@@QEAA_NW4INPUT_GLOBALS_TICK_COUNT@@@Z
        294  117 00011A80 ?UpdateInputGlobals@CInputGlobals@@QEAA_N_KW4_LINP_SOURCE@@GKK@Z
        295  118 0007A910 ?UpdateKeyboardLEDs@CKeyboardSensor@@QEAAXXZ
        296  119 0000F3C0 ?UpdateLastInputTime@CInputGlobals@@QEAAX_KW4_LINP_SOURCE@@@Z
        297  11A 001F1360 ?UpdatePointerInfoTarget@CTouchProcessor@@QEAAH_KUtagINPUTDEST@@HHPEAUtagPOINT@@2@Z
        298  11B 00025390 ?UpdateProcessPriorityForSpinning@ForegroundBoost@@YAXPEAUtagTHREADINFO@@@Z
        299  11C 000A3700 ?UpdateThreadPointerList@CTouchProcessor@@QEAAXPEAUtagTHREADINPUTPOINTERLIST@@G@Z
        300  11D 0003BE50 ?UpdateUserRgn@RGNOBJ@@QEAAXXZ
        301  11E 000E8DB0 ?UpdateWakeOnInputDeviceTypesFromRegistry@CInputGlobals@@QEAAXXZ
        302  11F 000DA450 ?Wait@IOCPDispatcher@@QEAAJPEAT_LARGE_INTEGER@@EPEAU_FILE_IO_COMPLETION_INFORMATION@@@Z
        303  120 0007A670 ?WaitAndDispatch@LegacyInputDispatcher@@QEAAJXZ
        304  121 001F4DD0 ?WaitForGuard@CInpLockGuard@@QEAAJXZ
        305  122 001F3E70 ?WaitForMessagesOrCustomInputEventsAndDispatch@LegacyInputDispatcher@@QEAAJXZ
        306  123 001F35E0 ?WasLastInputInjected@CInputGlobals@@QEBA_NXZ
        307  124 001F3640 ?WasLastInputJournalling@CInputGlobals@@QEBA_NXZ
        309  125 002AFB38 ?_spfnInputHitTestCallback@CSpatialProcessor@@2P6AHPEAU_InputHitTestRequest@@PEAU_InputHitTestResult@@@ZEA
        310  126 00180C50 ?bAddIcmDIB@BRUSH@@QEAAHPEAXPEAUHBITMAP__@@@Z
        311  127 00181B90 ?bAllClosed@EPATHOBJ@@QEAAHXZ
        312  128 00053890 ?bAllowShareAccess@PDEVOBJ@@QEAAHXZ
        313  129 00181BC0 ?bAppend@EPATHOBJ@@QEAAHPEAV1@PEAU_POINTFIX@@@Z
        314  12A 0003DC00 ?bCleanDC@XDCOBJ@@QEAAHH@Z
        315  12B 000DC740 ?bClone@EPATHOBJ@@QEAAHAEAV1@@Z
        316  12C 000A4240 ?bCloseFigure@EPATHOBJ@@QEAAHXZ
        317  12D 00030990 ?bCompute@DC@@QEAAHXZ
        318  12E 00181710 ?bComputeUnits@EXFORMOBJ@@QEAAHJPEAVPOINTFL@@PEAVEFLOAT@@1@Z
        320  12F 000330D0 ?bCopy@RGNOBJ@@QEAAHAEAV1@@Z
        321  130 00053F90 ?bCopy@RGNOBJAPI@@QEAAHAEAVRGNOBJ@@@Z
        322  131 000DBB20 ?bCreate@RGNOBJ@@QEAAHAEAVEPATHOBJ@@PEAVEXFORMOBJ@@@Z
        323  132 00048300 ?bCreateDIB@SURFMEM@@QEAAHPEAU_DEVBITMAPINFO@@PEAX1K1_KHHHH@Z
        324  133 00095630 ?bCreatePalette@PALMEMOBJ@@QEAAHKKPEBKKKKKH@Z
        325  134 000573F0 ?bDeleteRGNOBJAPI@RGNOBJAPI@@QEAAHXZ
        326  135 000317A0 ?bDeleteSurface@SURFACE@@QEAAHW4_CLEANUPTYPE@@H@Z
        327  136 0009C750 ?bEnum@EPATHOBJ@@QEAAHPEAU_PATHDATA@@@Z
        328  137 00053EB0 ?bEqual@RGNOBJ@@QEAAHAEAV1@@Z
        329  138 000A5790 ?bEqualExceptTranslations@EXFORMOBJ@@QEAAHPEAVMATRIX@@@Z
        330  139 000BC420 ?bExpand@RGNOBJ@@QEAAHK@Z
        331  13A 000AC170 ?bFlatten@EPATHOBJ@@QEAAHXZ
        332  13B 000D4F70 ?bIncludeSprites@SURFACE@@SAHXZ
        333  13C 000AC660 ?bInit@BEZIER32@@QEAAHPEAU_POINTFIX@@PEAU_RECTFX@@@Z
        334  13D 00053F00 ?bInside@RGNOBJ@@QEAAHPEAU_POINTL@@@Z
        335  13E 000AA420 ?bInside@RGNOBJ@@QEAAHPEAU_RECTL@@@Z
        336  13F 000D47F0 ?bIntersect@@YAHPEBU_RECTL@@0PEAU1@@Z
        337  140 000A7240 ?bInverse@EXFORMOBJ@@QEAAHAEAVMATRIX@@@Z
        338  141 00183270 ?bIsLocked@W32PIDLOCK@@QEAA_NXZ
        339  142 0002FE00 ?bLock@DEVLOCKOBJ@@QEAAHAEAVXDCOBJ@@H@Z
        340  143 000DC1B0 ?bMakeInfoDC@DC@@QEAAHH@Z
        341  144 0008FD90 ?bMakeSurface@PDEVOBJ@@QEAAHPEAUHSURF__@@@Z
        342  145 000A3210 ?bMap@SURFREFVIEW@@QEAAHPEAU_SURFOBJ@@@Z
        343  146 00039080 ?bMerge@RGNOBJ@@QEAAHAEAV1@0E@Z
        344  147 000A4280 ?bMoveTo@EPATHOBJ@@QEAAHPEAVEXFORMOBJ@@PEAU_POINTL@@@Z
        345  148 00034ED0 ?bMultiply@EXFORMOBJ@@QEAAHPEAVMATRIX@@0K@Z
        346  149 000AC3D0 ?bNext@BEZIER32@@QEAAHPEAU_POINTFIX@@@Z
        347  14A 00184F20 ?bNext@BEZIER64@@QEAAHPEAU_POINTFIX@@@Z
        348  14B 00053BE0 ?bOffset@RGNOBJ@@QEAAHPEAU_POINTL@@@Z
        349  14C 000A4120 ?bPolyBezierTo@EPATHOBJ@@QEAAHPEAVEXFORMOBJ@@PEAU_POINTL@@K@Z
        350  14D 000A42F0 ?bPolyLineTo@EPATHOBJ@@QEAAHPEAVEXFORMOBJ@@PEAU_POINTL@@K@Z
        351  14E 0003A0C0 ?bSetDefaultRegion@DC@@QEAAHXZ
        353  14F 0002F350 ?bSwap@RGNOBJAPI@@QEAAHPEAVRGNOBJ@@@Z
        354  150 002AF4B4 ?bTouchInputAllowed@RawInputManagerObject@@2HA
        355  151 000A3A30 ?bUnMap@SURFACE@@QEAAHPEAXPEAVDC@@@Z
        356  152 000ABBE0 ?bUnMap@SURFREFVIEW@@QEAAHXZ
        357  153 000ABAD0 ?bUnMapImmediate@SURFREFVIEW@@QEAAHXZ
        358  154 000A7910 ?bValid@CHMRefHwndByHandle@@QEBA_NXZ
        359  155 00181980 ?bXform@EXFORMOBJ@@QEAAHPEAU_POINTFIX@@PEAU_POINTL@@_K@Z
        360  156 000ACEB0 ?bXform@EXFORMOBJ@@QEAAHPEAU_POINTL@@0_K@Z
        361  157 001819F0 ?bXform@EXFORMOBJ@@QEAAHPEAU_POINTL@@PEAU_POINTFIX@@_K@Z
        362  158 000DD6D0 ?bXform@EXFORMOBJ@@QEAAHPEAU_VECTORFX@@PEAU_VECTORL@@_K@Z
        363  159 00181A60 ?bXform@EXFORMOBJ@@QEAAHPEAU_VECTORL@@0_K@Z
        364  15A 000B7E10 ?bXform@EXFORMOBJ@@QEAAHPEAU_VECTORL@@PEAU_VECTORFX@@_K@Z
        365  15B 000A73D0 ?bXform@EXFORMOBJ@@QEAAHPEAVVECTORFL@@0_K@Z
        366  15C 000A4790 ?bXformRound@EXFORMOBJ@@QEAAHPEAU_POINTL@@PEAU_POINTFIX@@_K@Z
        367  15D 0006C080 ?cFonts@PDEVOBJ@@QEAAKXZ
        368  15E 000DF360 ?cTotalCurves@EPATHOBJ@@QEAAKXZ
        369  15F 00181CE0 ?cTotalPts@EPATHOBJ@@QEAAKXZ
        370  160 000DCBB0 ?cjSize@EPATHOBJ@@QEAAKXZ
        371  161 000524D0 ?dwSetLayout@DC@@QEAAKJK@Z
        372  162 002AD1C8 ?ef16@@3VEFLOAT@@A
        373  163 00186710 ?eqCross@EFLOAT@@QEAA?AV1@AEBVPOINTFL@@0@Z
        374  164 000BF150 ?eqLength@EFLOAT@@QEAA?AV1@AEBVPOINTFL@@@Z
        375  165 002AED98 ?freelist@PATHALLOC@@0PEAV1@EA
        376  166 002AF598 ?gCookie@@3_KA
        377  167 002B3420 ?gDomainActiveLock@@3UtagDomLock@@A
        378  168 002B3440 ?gDomainAsyncKeyStateLock@@3UtagDomLock@@A
        379  169 002B3460 ?gDomainClientLibLock@@3UtagDomLock@@A
        380  16A 002B3438 ?gDomainDesktopLock@@3UtagDomLock@@A
        381  16B 002B0118 ?gDomainDummyLock@@3UtagDomLock@@A
        382  16C 002B3400 ?gDomainEtwLock@@3UtagDomLock@@A
        383  16D 002B3428 ?gDomainForegroundLock@@3UtagDomLock@@A
        384  16E 002B0120 ?gDomainHandleManagerLock@@3UtagDomLock@@A
        385  16F 002B3478 ?gDomainHookLock@@3UtagDomLock@@A
        386  170 002B3418 ?gDomainInputDelegationLock@@3UtagDomLock@@A
        387  171 002B3430 ?gDomainJobLock@@3UtagDomLock@@A
        388  172 002B3488 ?gDomainPostLock@@3UtagDomLock@@A
        389  173 002B3458 ?gDomainPowerTransitionsStateLock@@3UtagDomLock@@A
        390  174 002B3498 ?gDomainProcessInfoLock@@3UtagDomLock@@A
        391  175 002B3480 ?gDomainQueueLock@@3UtagDomLock@@A
        392  176 002B3410 ?gDomainQueueMgmtLock@@3UtagDomLock@@A
        393  177 002B3448 ?gDomainRawInputLock@@3UtagDomLock@@A
        394  178 002B68C8 ?gDomainSmsLock@@3UtagDomLock@@A
        395  179 002B3490 ?gDomainThreadInfoLock@@3UtagDomLock@@A
        396  17A 002B3408 ?gDomainThreadRundownLock@@3UtagDomLock@@A
        397  17B 002B3450 ?gDomainTlLock@@3UtagDomLock@@A
        398  17C 002B3470 ?gDomainWinEventLock@@3UtagDomLock@@A
        399  17D 002B3468 ?gDomainWindowLock@@3UtagDomLock@@A
        400  17E 002B2F78 ?gDpiDepDefaultGuiFontsPushLock@@3U_EX_PUSH_LOCK@@A
        401  17F 002B0168 ?gHidCountersLock@@3UtagObjLock@@A
        402  180 002B3130 ?gHidRequestTable@RawInputManagerObject@@2UtagHID_REQUEST_TABLE@@A
        403  181 002B0130 ?gObjDummyLock@@3UtagObjLock@@A
        404  182 002AF5A0 ?gPreviousProtocolType@@3GA
        405  183 00268690 ?gSmartObjNullRef@@3U_SMARTOBJSTACKREF@@B
        406  184 002A89A4 ?gStockBitmapFree@@3JA
        407  185 002B6800 ?gTPTelemState@Usage@PTPTelemetry@@2UtagTPTELEMSTATE@@A
        408  186 002AFAD0 ?gTPTelemTimings@Usage@PTPTelemetry@@2UtagTPTELEMTIMINGS@@A
        409  187 002AEFB4 ?gUMPDSecurityLevel@@3W4UMPDSecurityLevel@@A
        410  188 002B0148 ?gValidLockListEntryPushLock@@3U_EX_PUSH_LOCK@@A
        411  189 002AEA30 ?gWinLogonRpcHandle@@3PEAXEA
        412  18A 002AF49C ?g_bLockUpdatesForDwm@@3HA
        413  18B 002B73E8 ?g_pDwmState@@3PEAUDwmState@@EA
        414  18C 002AEFA0 ?gahDpiDepDefaultGuiFonts@@3PEAPEAXEA
        415  18D 002AEFA8 ?gahStockObjects96@@3PEAPEAXEA
        416  18E 002AEF98 ?gahStockObjects@@3PEAPEAXEA
        417  18F 002ADB40 ?gbInDestroyHandleTableObjects@@3HA
        418  190 002B73DC ?gbMultiMonMismatchColor@@3HA
        419  191 002ADAD8 ?gcDeferredDestroyTargets@@3KA
        420  192 002AEE8C ?gcMaxHmgr@@3KA
        421  193 002AEFB8 ?gcModeChanges@@3KA
        422  194 002AEFE8 ?gcRemoteNextGlobalDeviceNumber@@3KA
        423  195 002A8740 ?gcRemoteNextGlobalPhysicalOutputNumber@@3KA
        424  196 002ADB08 ?gcSecondaryDestroyTargets@@3KA
        425  197 002AF018 ?gdmLogPixels@@3GA
        426  198 002AF9F4 ?gdmLogPixelsOfPrimary@@3GA
        427  199 0015ED70 ?getDLT@DLT_ACTIVE@@SA?AW4DomainLockType@@XZ
        428  19A 000DAE60 ?getDLT@DLT_ASYNCKEYSTATE@@SA?AW4DomainLockType@@XZ
        429  19B 000AE120 ?getDLT@DLT_CLIENTLIB@@SA?AW4DomainLockType@@XZ
        430  19C 000C9C80 ?getDLT@DLT_DESKTOP@@SA?AW4DomainLockType@@XZ
        431  19D 0015ED80 ?getDLT@DLT_ETW@@SA?AW4DomainLockType@@XZ
        432  19E 0015ED90 ?getDLT@DLT_FOREGROUND@@SA?AW4DomainLockType@@XZ
        433  19F 000B4580 ?getDLT@DLT_HANDLEMANAGER@@SA?AW4DomainLockType@@XZ
        434  1A0 000AAF80 ?getDLT@DLT_HOOK@@SA?AW4DomainLockType@@XZ
        435  1A1 000DAE50 ?getDLT@DLT_INPUTDELEGATION@@SA?AW4DomainLockType@@XZ
        436  1A2 0015EDA0 ?getDLT@DLT_JOB@@SA?AW4DomainLockType@@XZ
        437  1A3 000B6910 ?getDLT@DLT_POST@@SA?AW4DomainLockType@@XZ
        438  1A4 000E7790 ?getDLT@DLT_POWERTRANSITIONSSTATE@@SA?AW4DomainLockType@@XZ
        439  1A5 000DAB00 ?getDLT@DLT_PROCESSINFO@@SA?AW4DomainLockType@@XZ
        440  1A6 000B5950 ?getDLT@DLT_QUEUE@@SA?AW4DomainLockType@@XZ
        441  1A7 0015EDB0 ?getDLT@DLT_QUEUEMGMT@@SA?AW4DomainLockType@@XZ
        442  1A8 0015EDC0 ?getDLT@DLT_RAWINPUT@@SA?AW4DomainLockType@@XZ
        443  1A9 000B3C80 ?getDLT@DLT_THREADINFO@@SA?AW4DomainLockType@@XZ
        444  1AA 000E77A0 ?getDLT@DLT_THREADLOCK@@SA?AW4DomainLockType@@XZ
        445  1AB 0015EDD0 ?getDLT@DLT_THREADRUNDOWN@@SA?AW4DomainLockType@@XZ
        446  1AC 0015EDE0 ?getDLT@DLT_WINDOW@@SA?AW4DomainLockType@@XZ
        447  1AD 000B1DE0 ?getDLT@DLT_WINEVENT@@SA?AW4DomainLockType@@XZ
        448  1AE 002B73F0 ?gfDwmDesktopOverlaysEnabled@@3HA
        449  1AF 002B73F4 ?gfDwmOverlayTestMode@@3HA
        450  1B0 002AF960 ?giSpriteUniqueness@@3KA
        451  1B1 002B3B5C ?giVisRgnUniqueness@@3KA
        452  1B2 002B3B58 ?giVisRgnUniquenessStable@@3KA
        453  1B3 002AD2F0 ?gmxIdentity_LToL@@3VMATRIX@@A
        454  1B4 002B3B40 ?gpCachedDbrush@@3PEAVRBRUSH@@EA
        455  1B5 002B34D8 ?gpCachedEngbrush@@3PEAVRBRUSH@@EA
        456  1B6 002AEA60 ?gpEventPowerRequest@@3PEAU_KEVENT@@EA
        457  1B7 002AF000 ?gpGraphicsDeviceList@@3PEAUtagGRAPHICS_DEVICE@@EA
        458  1B8 002AF990 ?gpHandleManager@@3PEAVGdiHandleManager@@EA
        459  1B9 002AEFE0 ?gpLocalGraphicsDeviceList@@3PEAUtagGRAPHICS_DEVICE@@EA
        460  1BA 002B7410 ?gpPFTPrivate@@3PEAVPFT@@EA
        461  1BB 002AEBC0 ?gpPenNull@@3PEAVPEN@@EA
        462  1BC 002B3B48 ?gpRGBXlate@@3PEAEEA
        463  1BD 002AFFD0 ?gpRemoteGraphicsDeviceList@@3PEAUtagGRAPHICS_DEVICE@@EA
        464  1BE 002AFFC8 ?gpRemoteGraphicsDeviceListLast@@3PEAUtagGRAPHICS_DEVICE@@EA
        465  1BF 002A6C78 ?gpSfmState@@3PEAUSfmState@@EA
        466  1C0 002ADDC8 ?gpStackRefLookAside@@3PEAXEA
        467  1C1 002AF020 ?gpTypeIsolation@@3PEAPEAEEA
        468  1C2 002AF588 ?gpUserTypeIsolation@@3PEAPEAEEA
        469  1C3 002AEBC8 ?gpbrBackground@@3PEAVBRUSH@@EA
        470  1C4 002B2768 ?gpbrNull@@3PEAVBRUSH@@EA
        471  1C5 002AEBD8 ?gpbrText@@3PEAVBRUSH@@EA
        472  1C6 002AF9A0 ?gpentHmgr@@3PEAU_ENTRY@@EA
        473  1C7 002A6C70 ?gpeqErrorLow@@3PEA_JEA
        474  1C8 002ADB00 ?gphePrimaryDestroyTarget@@3PEAU_HANDLEENTRY@@EA
        475  1C9 002AEFC0 ?gpldevDrivers@@3PEAU_LDEV@@EA
        476  1CA 002AF988 ?gppalRGB@@3PEAVPALETTE@@EA
        477  1CB 002AF948 ?gppdevList@@3PEAVPDEV@@EA
        478  1CC 002B0150 ?gpsiLock@@3UtagObjLock@@A
        479  1CD 00180D40 ?hFindIcmDIB@BRUSH@@QEAAPEAUHBITMAP__@@PEAX@Z
        480  1CE 002B7418 ?hForePID@@3PEAU_W32PROCESS@@EA
        481  1CF 002B7420 ?hForePalette@@3PEAUHPALETTE__@@EA
        482  1D0 000DC4E0 ?hpath@DC@@QEAAPEAUHPATH__@@PEAU2@@Z
        483  1D1 002AEDA8 ?hsemFreelist@PATHALLOC@@0PEAUHSEMAPHORE__@@EA
        484  1D2 00033DA0 ?iCombine@DC@@QEAAJPEAU_RECTL@@J@Z
        485  1D3 00184A10 ?iCombine@DC@@QEAAJPEAVEXFORMOBJ@@PEAU_RECTL@@J@Z
        486  1D4 00032F00 ?iCombine@RGNOBJ@@QEAAJAEAV1@0J@Z
        487  1D5 0002F6A0 ?iCombine@RGNOBJAPI@@QEAAJAEAVRGNOBJ@@0J@Z
        488  1D6 000D30A0 ?isOwned@CInpLockGuard@@QEAAHXZ
        489  1D7 002A8940 ?logDefaultPal@@3U_PAL_LOGPALETTE@@A
        490  1D8 00051BC0 ?pAdapterLuid@PDEVOBJ@@QEAAPEAU_LUID@@XZ
        491  1D9 00182930 ?pRenderAdapterLuid@PDEVOBJ@@QEAAPEAU_LUID@@XZ
        492  1DA 002AEDD8 ?pdibDefault@SURFACE@@2PEAV1@EA
        493  1DB 002AF968 ?ppalDefault@@3PEAVPALETTE@@EA
        494  1DC 002AF980 ?ppalDefaultSurface8bpp@@3PEAVPALETTE@@EA
        495  1DD 002AF970 ?ppalMono@@3PEAVPALETTE@@EA
        496  1DE 002AEDC0 ?prgnDefault@@3PEAVREGION@@EA
        497  1DF 002A6D90 ?pvDispatchTable@@3PAPEAXA
        498  1E0 000ADBD0 ?rpwnd@CHMRefHwndByHandle@@QEBAPEAUtagWND@@XZ
        499  1E1 002B70D4 ?s_atom@CHwndTargetProp@@2GA
        500  1E2 002AF5B0 ?s_pLookaside@ThreadLockedPerfRegion@InputTraceLogging@@0PEAXEA
        501  1E3 002AF958 ?s_pSCANLookAsideList@RGNMEMOBJ@@2PEAXEA
        502  1E4 002AF5A8 ?s_userCritLoggingEnabled@Perf@InputTraceLogging@@0_NA
        503  1E5 000A6B90 ?sizeSave@RGNOBJ@@QEAAKXZ
        504  1E6 002AD370 ?tSize@SURFACE@@0_KA
        505  1E7 00094F20 ?ulDispatchGFPEFunction@XEPALOBJ@@QEAAKW4GFPE_FUNCTION_ID@@K@Z
        506  1E8 000DC400 ?ulGetNearestFromPalentryNoExactMatchFirst@XEPALOBJ@@QEAAKUtagPALETTEENTRY@@@Z
        507  1E9 00097AE0 ?ulIndexToRGB@XEPALOBJ@@QEAAKK@Z
        508  1EA 002B7428 ?ulTableIndex@@3KA
        509  1EB 002AEDB8 ?ulUniqueREGION@REGION@@0KA
        510  1EC 002A89A0 ?ulXlatePalUnique@@3KA
        511  1ED 000D7450 ?vClearIncludeSprites@SURFACE@@SAXXZ
        512  1EE 0009D5E0 ?vCloseAllFigures@EPATHOBJ@@QEAAXXZ
        513  1EF 00034CC0 ?vComputeAccelFlags@EXFORMOBJ@@QEAAXK@Z
        514  1F0 00095B80 ?vComputeCallTables@XEPALOBJ@@QEAAXXZ
        515  1F1 00039000 ?vCopy@RGNOBJ@@QEAAXAEAV1@@Z
        516  1F2 0009D0A0 ?vCreate@RGNMEMOBJ@@QEAAXAEAVEPATHOBJ@@KPEAU_RECTL@@@Z
        517  1F3 00092380 ?vDelete@EBRUSHOBJ@@QEAAXXZ
        518  1F4 000376B0 ?vDeleteREGION@REGION@@QEAAXXZ
        519  1F5 000A3610 ?vDeleteRGNOBJ@RGNOBJ@@QEAAXXZ
        520  1F6 00096790 ?vDestroyScanLookAsideList@RGNMEMOBJ@@SAXXZ
        521  1F7 000923B0 ?vDisableSurface@PDEVOBJ@@QEAAXW4_CLEANUPTYPE@@E@Z
        522  1F8 000A6BD0 ?vDownload@RGNOBJ@@QEAAXPEAX@Z
        523  1F9 0004FE20 ?vFreeBlocks@EPATHOBJ@@QEAAXXZ
        525  1FA 00095080 ?vFreeOrCacheRBrush@RBRUSH@@QEAAXW4RBTYPE@@@Z
        526  1FB 00181AE0 ?vGetCoefficient@EXFORMOBJ@@QEAAXPEAU_FD_XFORM@@@Z
        527  1FC 000A7460 ?vGetCoefficient@EXFORMOBJ@@QEAAXPEAU_XFORML@@@Z
        528  1FD 000A7170 ?vGetCoefficient@EXFORMOBJ@@QEAAXPEAUtagFLOATOBJ_XFORM@@@Z
        529  1FE 0002E280 ?vGetSubRect@RGNOBJ@@QEBAXPEAU_RECTL@@@Z
        530  1FF 00185480 ?vInit@BEZIER64@@QEAAXPEAU_POINTFIX@@PEAU_RECTFX@@PEB_J@Z
        531  200 00033BC0 ?vInit@EXFORMOBJ@@QEAAXAEAVXDCOBJ@@KH@Z
        532  201 00094A10 ?vInitBrush@EBRUSHOBJ@@QEAAXPEAVDC@@PEAVBRUSH@@VXEPALOBJ@@2PEAVSURFACE@@H@Z
        533  202 00053020 ?vLock@NEEDGRELOCK@@QEAAXAEAVPDEVOBJ@@@Z
        534  203 00053800 ?vLock@NEEDGRELOCK@@QEAAXAEAVXDCOBJ@@@Z
        535  204 00055670 ?vLockNoDrawing@DEVLOCKOBJ@@QEAAXAEAVXDCOBJ@@@Z
        536  205 000A77B0 ?vLockSingleThread@W32PIDLOCK@@QEAAXXZ
        537  206 00093730 ?vMakeNoXlate@XEPALOBJ@@QEAAXXZ
        538  207 000ADAF0 ?vOffset@EPATHOBJ@@QEAAXAEAVEPOINTL@@@Z
        539  208 00032EA0 ?vOrder@EXFORMOBJ@@QEBAXAEAU_RECTL@@@Z
        540  209 000A4010 ?vPopThreadGuardedObject@RGNMEMOBJ@@QEAAXXZ
        541  20A 0002F200 ?vPushThreadGuardedObject@RGNMEMOBJ@@QEAAXXZ
        542  20B 0008D2D0 ?vReferencePdev@PDEVOBJ@@QEAAXXZ
        543  20C 000DB960 ?vRelease@UMPDOBJ@@SAXPEAV1@H@Z
        544  20D 0003C620 ?vReleaseRao@DC@@QEAAXXZ
        545  20E 000B92C0 ?vRemoveTranslation@EXFORMOBJ@@QEAAXXZ
        546  20F 00182BD0 ?vScale@RGNOBJ@@QEAAXVPOINTFL@@@Z
        547  210 0003C070 ?vSet@RGNOBJ@@QEAAXPEAU_RECTL@@@Z
        548  211 00037FD0 ?vSet@RGNOBJ@@QEAAXXZ
        549  212 000D7480 ?vSetIncludeSprites@SURFACE@@SAXXZ
        550  213 000A76C0 ?vSetRendering@DC@@QEAAXXZ
        551  214 0002F8A0 ?vSetup@XCLIPOBJ@@QEAAXPEAVREGION@@AEAVERECTL@@H@Z
        552  215 00037940 ?vSwap@RGNOBJ@@QEAAXPEAV1@@Z
        553  216 00060D30 ?vSync@PDEVOBJ@@QEAAXPEAU_SURFOBJ@@PEAU_RECTL@@K@Z
        554  217 0009D4F0 ?vTighten@RGNOBJ@@QEAAXXZ
        555  218 0004FD00 ?vUnlock@EPATHOBJ@@QEAAXXZ
        556  219 000B4CF0 ?vUnlock@NEEDGRELOCK@@QEAAXXZ
        557  21A 000AA2D0 ?vUnlockSingleThread@W32PIDLOCK@@QEAAXXZ
        558  21B 0004E580 ?vUnrefPalette@XEPALOBJ@@QEAAXXZ
        559  21C 000366E0 ?vUnreferencePdev@PDEVOBJ@@QEAAXW4_CLEANUPTYPE@@@Z
        560  21D 000AC090 ?vUpdateScaledRegions@DC@@QEAAXXZ
        561  21E 00034520 ?vUpdateWtoDXform@DC@@QEAAXXZ
        562  21F 0003CDD0 ?vUpdate_VisRect@DC@@QEAAXPEAVREGION@@@Z
        563  220 002B2FB0 ?xlateTable@@3PAU_XLATETABLE@@A
        564  221 002AF030 ?xloIdent@@3VXLATE256@@A
        565  222 001D09A0 ?xxxAccessTimeOutTimer@@YAXPEAUtagWND@@I_K_J@Z
        566  223 001D0BD0 ?xxxMKButtonClick@@YAHG@Z
        567  224 001D0C10 ?xxxMKButtonDoubleClick@@YAHG@Z
        568  225 001D0C30 ?xxxMKButtonSetState@@YAHG@Z
        569  226 001D0CC0 ?xxxMKMouseMove@@YAHG@Z
        570  227 001D1940 ?xxxMKToggleMouseKeys@@YAHG@Z
        571  228 001D1A40 ?xxxStickyKeys@@YAHPEAUtagKE@@KH@Z
        572  229 001D1F00 ?xxxTurnOffStickyKeys@@YAXXZ
        573  22A 001D1F60 ?xxxTwoKeysDown@@YAHH@Z
        574  22B 001D1FE0 ?xxxUnlatchStickyKeys@@YAXXZ
        575  22C 001D2050 ?xxxUpdateModifierState@@YAXHH@Z
        576  22D 000C8E20 AccessCheckObject
        577  22E 000D8570 AccessPTPEnabledStatus
        578  22F 000D6010 AcquireCriticalSectionAndCheckState
        579  230 000D5F90 AcquireCriticalSectionCheckStateAndUpdateGraphicsDeviceList
        580  231 001FF430 AddEdgePalmRejectionZone
        581  232 00086930 AddThreadWakeEventDispatcherToIOCP
        582  233 000B8BF0 AddW32TlsData
        583  234 0009CF20 AllocAce
        584  235 0002E8B0 AllocFreeTmpBuffer
        585  236 0001C920 AllocQueue
        586  237 000A30D0 AllocThreadBufferWithTag
        587  238 0004B0B0 AllocateObject
        588  239 0009DF60 AllocateWindowManagerSid
        589  23A 000D96E0 ApplyGatheredKeyboardDeviceCount
        590  23B 00083D00 ApplySecurityAttributesToWinsta
        591  23C 0001F400 AssociateKernelIocpWcp
        592  23D 000D3310 BroadcastSettingsUpdateToAllContainers
        593  23E 000D4F30 CSTPush
        594  23F 00162C00 CSTRemove
        595  240 000DF5C0 CallMonitor
        596  241 000228A0 CanHitTestInDwm
        597  242 001FFAE0 CancelCapturedMipOverride
        598  243 00039F20 CaptureAndValidateUserModeDpiAwarenessContext
         53  244 000DD3D0 CaptureDEVMODEW
         54  245 000DCD60 CaptureDriverInfo2W
        599  246 00020D50 CaptureLogicalCursorPosToQMouseMove
        600  247 000CA620 ChangeAcquireResourceType
        601  248 000A77F0 CheckAccess
        602  249 00254EB0 CheckAndProcessSurfaceComplete
        603  24A 001FFB10 CheckCapability
        604  24B 00080320 CheckDesktopPolicy
        605  24C 00162CC0 CheckDesktopPolicyChange
        606  24D 0009AED0 CheckDwmProcessSecurityIdentifier
        607  24E 001FFB70 CheckIntegrityAccessToCapture
        608  24F 001FFBD0 ChildProcessRootSynthesizedMouseInput
        609  250 000AD750 CitDesktopSwitch
        610  251 000C2180 CitGetMonitorInfo
        611  252 00257F00 CitLastInputUpdate
        612  253 002580C0 CitModerncoreShutdown
        613  254 00074780 CitProcessForegroundChange
        614  255 000D7FA0 CitSessionConnectChange
        615  256 00026230 CitSetInfo
        616  257 0006E9F0 CitUserChange
        617  258 000B1940 CleanupInputDelegation
        618  259 0008AB40 CleanupLogonProcess
        619  25A 0006B7F0 CleanupPowerRequestList
        620  25B 000D6E90 CleanupRemoteHandles
        621  25C 00075F80 CleanupSensorExplicitly
        622  25D 00024E50 ClearAppStarting
        623  25E 000C3570 ClearKeyboardToggleStates
        624  25F 000D9A00 ClearLogicalCursorPos
        625  260 00014490 CoalesceInputSourceMouseMoves
        626  261 00084030 CommitReadOnlyMemory
        627  262 00054460 CreateCacheDC
        628  263 000CFCF0 CreateDesktopObObject
        629  264 0004D4E0 CreateEmptyRgn
        630  265 0004D490 CreateEmptyRgnPublic
        631  266 000C6270 CreateGlobalAtomTable
        632  267 000838F0 CreateKernelEvent
        633  268 000884E0 CreateKernelIocp
        634  269 000D00C0 CreateKernelIocpWcp
        635  26A 0007C520 CreateKernelSemaphore
        636  26B 001604A0 CreateKernelTimer
        637  26C 000547E0 CreateMonitorRegionForDpi
        638  26D 000816E0 CreateProfileUserName
         65  26E 000ADA80 CreateRegion
         66  26F 00183430 CreateRegionFromRect
        639  270 0009D800 CreateSecurityDescriptor
        640  271 00228F50 CreateSharedSystemVisualBitmapObject
        641  272 0009C110 CreateSharedSystemVisualObject
        642  273 002B01B8 CsrApiPort
        643  274 00022C50 DCompHitTest
        644  275 00228F90 DCompositionCreateSynchronizationObject
        645  276 0009FD40 DCompositionDwmInitialize
        646  277 000B1C00 DCompositionNotifyCompositionTokenPresent
        647  278 000B8920 DCompositionNotifyPresent
        648  279 00025B20 DCompositionProcessCallout
        649  27A 00087870 DCompositionSessionInitialize
        650  27B 000B1B40 DCompositionShouldDeferToken
        651  27C 000BF1F0 DCompositionThreadCallout
        652  27D 0003D620 DEC_SHARE_REF_CNT
         68  27E 00041E90 DEC_SHARE_REF_CNT_LAZY0
         69  27F 00042B30 DEC_SHARE_REF_CNT_LAZY_DEL_LOGFONT
        653  280 00001470 DeferSysPeekMsg
        654  281 000B7CB0 DeleteMaybeSpecialRgn
        655  282 00014C20 DeleteProperties
        656  283 000B1DA0 DereferenceDwmApiPort
        657  284 000B1DA0 DereferenceDwmProcess
        658  285 0026B970 DesktopMapping
        659  286 00055310 DestroyCacheDC
        660  287 0006B770 DestroyMonitorDCs
        661  288 0007C290 DeviceTypeToRimInputType
        662  289 000CF0A0 DisableDelegation
         80  28A 0015DC50 DispBrokerAsyncRefreshOrientation
         81  28B 0015DC90 DispBrokerAsyncRotationLockToggleKey
         82  28C 0006C840 DispBrokerAsyncSessionSwitched
        663  28D 000DAB00 DllUnload
        664  28E 001FFD60 DoAccel
        665  28F 0008E560 DrvBuildDevmodeList
        666  290 00097350 DrvCleanupOneGraphicsDevice
        667  291 000D7BE0 DrvCloseGraphicsDevices
        668  292 000DE990 DrvCreatePhysicalMonitorObjects
        669  293 00060190 DrvDisableMDEV
        670  294 000D9EF0 DrvDisplayConfigGetDeviceInfo
        671  295 0018ABC0 DrvDisplayConfigGetScaleFactorOverrides
        672  296 0018ACF0 DrvDisplayConfigSetDeviceInfo
        673  297 0018B220 DrvDisplayConfigSetScaleFactorOverride
        674  298 000CC660 DrvDxgkDisplayOnOff
        675  299 0018B4A0 DrvDxgkGetMonitorDeviceObject
        676  29A 000D1710 DrvDxgkLogCodePointPacket
        677  29B 0018B4C0 DrvDxgkPollDisplayChildren
        678  29C 0018B4F0 DrvDxgkUpgradeLegacyDpiSettings
        679  29D 0018B790 DrvDxgkWriteDiagEntry
        680  29E 00059A60 DrvEnumDisplayDevices
        681  29F 00058EC0 DrvEnumDisplaySettings
        682  2A0 000E3CE0 DrvEscapeRemoteDrivers
        683  2A1 00052CE0 DrvGetDeviceFromName
        684  2A2 00056BC0 DrvGetDisplayConfigBufferSizes
        685  2A3 0008D910 DrvGetDisplayDriverNames
        686  2A4 00052650 DrvGetHDEV
        687  2A5 0007E2E0 DrvGetHdevName
        688  2A6 000D9F10 DrvGetLogPixels
        689  2A7 0018BAC0 DrvGetMonitorOrientation
        690  2A8 000D3F30 DrvGetSuggestedPhysicalMonitorArraySize
        691  2A9 00051AF0 DrvGetWDDMAdapterInfo
        692  2AA 000D6370 DrvInitializeDxgkrnlDpiCache
        693  2AB 000D8F00 DrvIsNotUsingGraphicsDevice
        694  2AC 000D9970 DrvIsSourceInHardwareClone
        695  2AD 000658F0 DrvIsUniformSpaceMapping
        696  2AE 00063B50 DrvLogDiagDisplayChange
        697  2AF 00097280 DrvNotifySessionStateChange
        698  2B0 000E3B40 DrvPixelSpaceToUniformSpacePoint
        699  2B1 00056AC0 DrvQueryDisplayConfig
        700  2B2 00063B00 DrvQueryMDEVPowerState
        701  2B3 000E3970 DrvSessionHasAnyGraphicsDevice
        702  2B4 000624B0 DrvSetDisplayConfig
        703  2B5 000A84A0 DrvSetGraphicsDevices
        704  2B6 000E37D0 DrvSetMDEVPowerState
        705  2B7 000E14E0 DrvSetMonitorPowerState
        706  2B8 00065860 DrvUniformSpaceToPixelSpacePoint
        707  2B9 0005CE30 DrvUpdateGraphicsDeviceList
        708  2BA 0018CE50 DwmSyncFlushAndWaitForBatch
        709  2BB 00052DB0 DxLddmFindProcessEntry
        710  2BC 0006B890 DxgkEngNotifyDisplayChange
        711  2BD 000D9BE0 EnableMouseAcceleration
        712  2BE 00162600 EnablePTPDevices
        713  2BF 00066840 EnforceColorDependentSettings
        714  2C0 000B1E90 Enforced
        715  2C1 000B50F0 EngAcquireFastMutex
        716  2C2 00052CA0 EngAcquireSemaphore
        717  2C3 000C9EB0 EngAcquireSemaphoreNoWait
        718  2C4 0018E050 EngAcquireSemaphoreShared
        719  2C5 000DE790 EngAcquireSemaphoreSharedNoWait
        720  2C6 00095C60 EngAllocMem
        721  2C7 0018E090 EngAllocSectionMem
        722  2C8 000D3F00 EngAllocUserMem
        723  2C9 000BB7A0 EngAssociateSurface
        724  2CA 0018E150 EngBugCheckEx
        725  2CB 00067D50 EngCombineRgn
        726  2CC 0018EA50 EngCopyRgn
        727  2CD 000BB8B0 EngCreateBitmap
        728  2CE 0018EF30 EngCreateClip
        729  2CF 0018EA10 EngCreateDeviceBitmap
        730  2D0 000BB810 EngCreateDeviceSurface
        731  2D1 0018E180 EngCreateFastMutex
        732  2D2 00095530 EngCreatePalette
        733  2D3 00065D20 EngCreateRectRgn
        734  2D4 000BB870 EngCreateRedirectionDeviceBitmap
        735  2D5 000D00A0 EngCreateSemaphore
        736  2D6 0018E1A0 EngDebugBreak
        737  2D7 0018E1B0 EngDebugPrint
        738  2D8 0018EFF0 EngDeleteClip
        739  2D9 0018F230 EngDeleteDriverObj
        740  2DA 00009920 EngDeleteFastMutex
        741  2DB 00093660 EngDeletePalette
        742  2DC 00065910 EngDeleteRgn
        743  2DD 0018E250 EngDeleteSafeSemaphore
        744  2DE 000D43F0 EngDeleteSemaphore
        745  2DF 00093770 EngDeleteSurface
        746  2E0 0018E290 EngDeviceIoControl
        747  2E1 0018EAD0 EngEqualRgn
        748  2E2 0018E350 EngExpandStackAndCallout
        749  2E3 00095200 EngFreeMem
        750  2E4 0018E380 EngFreeSectionMem
        751  2E5 00024FB0 EngFreeUserMem
        752  2E6 0018E3E0 EngGetLastError
        753  2E7 000DAB00 EngGetProcessHandle
        754  2E8 0018EB80 EngGetRgnBox
        755  2E9 00008F20 EngGetRgnData
        756  2EA 0018E410 EngInitializeSafeSemaphore
        757  2EB 0018EBE0 EngIntersectRgn
        758  2EC 000D8720 EngIsSemaphoreOwned
        759  2ED 000CCCE0 EngIsSemaphoreOwnedByCurrentThread
        760  2EE 000CCD00 EngIsSemaphoreSharedByCurrentThread
        761  2EF 0018F350 EngLockDriverObj
        762  2F0 00044F90 EngLockSurface
        763  2F1 0018E460 EngMapSection
        764  2F2 000C11A0 EngModifySurface
        765  2F3 00055110 EngMulDiv
        766  2F4 0018E580 EngMultiByteToUnicodeN
        767  2F5 0018EC80 EngOffsetRgn
        768  2F6 0018E5B0 EngProbeForRead
        769  2F7 0018E600 EngQueryPerformanceCounter
        770  2F8 0018E630 EngQueryPerformanceFrequency
        771  2F9 0018E650 EngQuerySystemAttribute
        772  2FA 000D2220 EngQueryW32kCddInterface
        773  2FB 0018ECF0 EngRectInRgn
        774  2FC 000B5110 EngReleaseFastMutex
        775  2FD 000A6FA0 EngReleaseSemaphore
        776  2FE 0018E760 EngSecureMem
[...]
       2097  82F 002AE9C0 gAccessTimeOut
       2098  830 002AE998 gAudioDescription
       2099  831 002AE86B gBounceVk
       2100  832 002AE058 gCallerKernelAbiVersion
       2101  833 002B6B8F gCurrentModifierBit
       2102  834 002ADED8 gDWMCapable
       2103  835 002AE778 gDriverObjectTimes
       2104  836 002AF630 gDxgkInterface
       2105  837 002A1100 gDxgkWin32kEngInterface
       2106  838 002AE9F8 gFilterKeys
       2107  839 002B7434 gGdiInPageErrors
       2108  83A 002B3798 gHardErrorHandler
       2109  83B 002B6B30 gHidCounters
       2110  83C 002AE9A8 gHighContrast
       2111  83D 002B1B30 gHighContrastDefaultScheme
       2112  83E 002B6C20 gHighContrastRegistryKey
       2113  83F 002B6AC0 gInputSinkInfoRetrieval
       2114  840 002B3830 gKbdImeStatus
       2115  841 002AD180 gKeyboardInfo
       2116  842 002B6B91 gLastVkDown
       2117  843 002B3869 gLatchBits
       2118  844 002B3868 gLockBits
       2119  845 002B6B8C gMKPreviousVk
       2120  846 002A12D0 gMagnContext
       2121  847 002B01C0 gMenuState
       2122  848 002B6E48 gMiPTracking
       2123  849 002AE9D0 gMouseKeys
       2124  84A 002A82B0 gNestedWindowLimit
       2125  84B 002AD178 gNumLockVk
       2126  84C 002AD290 gOemScrollVk
       2127  84D 002AD174 gPTPEnabled
       2128  84E 002AFEE0 gPendingMonitorOnReason
       2129  84F 002B05D0 gPendingNotifiesList
       2130  850 002AFFE0 gPendingSleepInputReason
       2131  851 002B6B90 gPhysModifierState
       2132  852 002B2760 gPlatformRole
       2133  853 002AE0A8 gPowerAdaptiveState
       2134  854 002AFEF0 gPowerDisplayState
       2135  855 002AFE90 gPowerState
       2136  856 002AFF80 gPowerTransitionsState
       2137  857 002B6B8E gPrevModifierState
       2138  858 002ADFCC gProtocolType
       2139  859 002ADFB8 gRemoteClientKeyboardType
       2140  85A 002ADFD8 gRemoteDisplayDeviceName
       2141  85B 002AE008 gRemoteKeyboardChannelHandlePair
       2142  85C 002AE020 gRemoteMouseChannelHandlePair
       2143  85D 002AE03C gRemoteNumMonitors
       2144  85E 002ADFD0 gRemotePreviousMonitorsCount
       2145  85F 002AE038 gRemotePrimaryMonitor
       2146  860 002AE040 gRemoteSessionUseWddm
       2147  861 002AE048 gRemoteTerminalLuid
       2148  862 002A12F0 gRemoteWndsMonitorSnapshotHead
       2149  863 002B02C0 gRotationProcessLock
       2150  864 002B1A50 gSMWP
       2151  865 002ADE88 gServiceSessionId
       2152  866 002AE0F8 gSessionCreationTime
       2153  867 002A82A4 gSessionId
       2154  868 002ADB60 gSharedInfo
       2155  869 002B1C30 gSoundSentry
       2156  86A 002ADEF8 gSqmIsOptedIn
       2157  86B 002ADEF0 gSqmSession
       2158  86C 002AE9F0 gStickyKeys
       2159  86D 002AE869 gStickyKeysLeftShiftCount
       2160  86E 002AE868 gStickyKeysRightShiftCount
       2161  86F 002B6B8D gTKScanCode
       2162  870 002B30E0 gTLCInfoLock
       2163  871 002B6990 gTPThresholds
       2164  872 002B19E0 gTermIO
       2165  873 002B3800 gThinwireFileObject
       2166  874 002B05E0 gTimerHashTable
       2167  875 002B09E0 gTimerId
       2168  876 002AE9B8 gToggleKeys
       2169  877 002ADEB0 gTouchPadParameters
       2170  878 002AE0F0 gUserPostMessageLimit
       2171  879 002ADB18 gUserProcessHandleQuota
       2172  87A 002B3808 gVideoFileObject
       2173  87B 002AE060 gWinStationInfo
       2174  87C 002B0348 gWinstaRunRef
       2175  87D 002A12E0 gWndsMonitorSnapshotHead
       2176  87E 002666E8 gZero
       2177  87F 002B3890 g_hbmDesktopPattern
       2178  880 002AEA28 g_pWallpaperSettings
       2179  881 002AD3F0 gaefArctan
       2180  882 002AD3C0 gaefAxisAngle
       2181  883 002AD3D8 gaefAxisCoord
       2182  884 002AD1E0 gaefSin
       2183  885 002ADE00 gafAsyncKeyState
       2184  886 002AE750 gafAsyncKeyStateRecentDown
       2185  887 002AE710 gafRawKeyState
       2186  888 002ADE98 gafServiceFilterAuditCache
       2187  889 002B37E8 gafServiceFilterAuditStackCache
       2188  88A 00262F40 gahti
       2189  88B 002AE110 gaptMouse
       2190  88C 002A7FC8 gapulCvt_VK
       2191  88D 002A7FE0 gapulCvt_VK_84
       2192  88E 0026B8F0 gargbInitial
       2193  88F 002AA870 gasyscur
       2194  890 002AE0D4 gatomFirstPinned
       2195  891 002B3828 gatomLastPinned
       2196  892 002B6B58 gatomMiPFlags
       2197  893 002B386C gbBlockSendInputResets
       2198  894 002ADE4C gbCleanedUpResources
       2199  895 002ADFA8 gbClientDoubleClickSupport
       2200  896 002ADFC4 gbConnectCompleted
       2201  897 002ADFC8 gbConnected
       2202  898 002AD970 gbDBCSCodePage
       2203  899 002B6B78 gbDesktopLocked
       2204  89A 002AE0F4 gbDisableAlpha
       2205  89B 002B34C8 gbDisableLddmSpriteTearDown
       2206  89C 002B6B3C gbExitInProgress
       2207  89D 002B3820 gbFirstConnectionDone
       2208  89E 002AE050 gbFirstInteractiveSession
       2209  89F 002B6B40 gbFreezeScreenUpdates
       2210  8A0 002AD284 gbGDIOn
       2211  8A1 002B7438 gbGUISetup
       2212  8A2 002AF9B4 gbGreSessionCleanup
       2213  8A3 002ADAF8 gbInDestroyExclusiveUserCritDeferredUnlockList
       2214  8A4 002B37E0 gbInMitRitHandOff
       2215  8A5 002B6B54 gbInVideoPnpCallout
       2216  8A6 002AD974 gbLockEtw
       2217  8A7 002AF590 gbLockScreenActive
       2218  8A8 002B36C0 gbMDEVDisabled
       2219  8A9 002B37F4 gbMIT
       2220  8AA 002AE86A gbMKMouseMode
       2221  8AB 002AE0B1 gbManualDimTimeOut
       2222  8AC 002B68FC gbMouseInjectionBlockedOnDIT
       2223  8AD 002B37F0 gbNoMoreDITHitTest
       2224  8AE 002AE088 gbNoMorePowerCallouts
       2225  8AF 002AE05C gbNonServiceSession
       2226  8B0 002ADE70 gbOSTestSigningEnabled
       2227  8B1 002AFEE4 gbPendingMonitorOn
       2228  8B2 002AFFE4 gbPendingSleepInput
       2229  8B3 002ADDD8 gbPowerCalloutsReady
       2230  8B4 002AE054 gbRemoteFxSession
       2231  8B5 002B690C gbRootPartition
       2232  8B6 002B0358 gbSnapShotWindowsAndMonitors
       2233  8B7 002ADEA0 gbTraceLoggingInitialized
       2234  8B8 002AE0B0 gbTtmEnabled
       2235  8B9 002B0088 gbUsingDefaultSectionSize
       2236  8BA 002AE08C gbVideoInitialized
       2237  8BB 002ADEC8 gcDITLuidHitTestWaiters
       2238  8BC 002B68F8 gcDITMouseInjectionWaiters
       2239  8BD 002B6B50 gcDeferredDestroyTargetsReported
       2240  8BE 002ADAF4 gcInHMDestroyUnlockedObjectWorker
       2241  8BF 002AF5A4 gcLocalNextGlobalDeviceNumber
       2242  8C0 002ADF60 gcSwitchInProgressWaiters
       2243  8C1 002B3780 gcSysExpunge
       2244  8C2 002AD944 gcTrueTypeFonts
       2245  8C3 002B3700 gcachedCaptions
       2246  8C4 002AE100 gcmsLastTimer
       2247  8C5 002AD19C gdtDblClk
       2248  8C6 002ADE60 gdwDeferWinEvent
       2249  8C7 002AE094 gdwDesktopSectionSize
       2250  8C8 002AF620 gdwDirectDrawContext
       2251  8C9 002B3750 gdwExtraInstrumentations
       2252  8CA 002B37D0 gdwGTERMFlags
       2253  8CB 002ADE48 gdwGuiThreads
       2254  8CC 002AD170 gdwHungAppTimeout
       2255  8CD 002ADAF0 gdwHydraHint
       2256  8CE 002AD294 gdwIMEOpenStatus
       2257  8CF 002AE86C gdwKeyboardAttributes
       2258  8D0 002ADEA8 gdwMDAQThreshold
       2259  8D1 002ADEA4 gdwMDAQTimeoutDefenseInDepth
       2260  8D2 002B1A48 gdwMITWakeReason
       2261  8D3 002AE090 gdwNOIOSectionSize
       2262  8D4 002A82A8 gdwPUDFlags
       2263  8D5 002AD1A0 gdwPolicyFlags
       2264  8D6 002B6B5C gdwPoolFlags
       2265  8D7 002B02D4 gdwServiceFilterAuditCaptureWER
       2266  8D8 002B02D8 gdwServiceFilterAuditThrottleMode
       2267  8D9 002B3784 gdwThreadEndSession
       2268  8DA 002AFFC0 gdwUpdateKeyboard
       2269  8DB 002B0344 gdwWaitToKillServiceTimeout
       2270  8DC 002B3870 gfEnableHexNumpad
       2271  8DD 002A82AC gfEnableWindowsKey
       2272  8DE 002AE888 gfInNumpadHexInput
       2273  8DF 002AFFE8 gfIsFadingInProgress
       2274  8E0 002B6B6C gfKanaToggle
       2275  8E1 002AFE80 gfMonitorPowerInProgress
       2276  8E2 002A82C8 gfRecordPnpNotification
       2277  8E3 002B3810 gfRemotingConsole
       2278  8E4 002ADFB0 gfSessionSwitchBlock
       2279  8E5 002AF594 gfSwitchInProgress
       2280  8E6 002B0180 gfade
       2281  8E7 002AD954 gfsCurSignature
       2282  8E8 002B6B68 gfsSASModifiersDown
       2283  8E9 002B02D0 gfsSave
       2284  8EA 002ADF00 ghKbdTblBase
       2285  8EB 002B3858 ghMITEvent
       2286  8EC 002AE018 ghRemoteBeepChannel
       2287  8ED 002AE000 ghRemoteThinwireChannel
       2288  8EE 002AE030 ghRemoteVideoChannel
       2289  8EF 002AE0C8 ghSMSS
       2290  8F0 002B0360 ghSectionKernelHandleTable
       2291  8F1 002ADB20 ghSectionShared
       2292  8F2 002B1C68 ghWinstaDirectory
       2293  8F3 002B03B8 ghbrBlack
       2294  8F4 002B1B18 ghbrHungApp
       2295  8F5 002B03C0 ghbrWhite
       2296  8F6 002AE808 ghdcMem
       2297  8F7 002AE800 ghdcMem2
       2298  8F8 002AEDE0 ghfmMemory
       2299  8F9 002AE7F8 ghrgnGDC
       2300  8FA 002AE820 ghrgnInv0
       2301  8FB 002AE818 ghrgnInv1
       2302  8FC 002AE810 ghrgnInv2
       2303  8FD 002AE828 ghrgnInvalid
       2304  8FE 002AE850 ghrgnInvalidSum
       2305  8FF 002AE7F0 ghrgnSCR
       2306  900 002AE7E8 ghrgnSPB1
       2307  901 002AE7E0 ghrgnSPB2
       2308  902 002AE7D8 ghrgnSW
       2309  903 002AE840 ghrgnSWP1
       2310  904 002AE7D0 ghrgnScrl1
       2311  905 002AE7C8 ghrgnScrl2
       2312  906 002AE7B0 ghrgnScrlDst
       2313  907 002AE7B8 ghrgnScrlSrc
       2314  908 002AE7A8 ghrgnScrlValid
       2315  909 002AE7C0 ghrgnScrlVis
       2316  90A 002AE838 ghrgnValid
       2317  90B 002AE830 ghrgnValidSum
       2318  90C 002AE848 ghrgnVisNew
       2319  90D 002AD968 ghsemAtmfdInit
       2320  90E 002AD958 ghsemCLISERV
       2321  90F 002AD9A8 ghsemDCVisRgn
       2322  910 002AD9D8 ghsemDriverMgmt
       2323  911 002AD988 ghsemDwmState
       2324  912 002AD9E8 ghsemDynamicModeChange
       2325  913 002AD960 ghsemFntCache
       2326  914 002AD9B0 ghsemGreLock
       2327  915 002AD9A0 ghsemHT
       2328  916 002AEF90 ghsemHmgr
       2329  917 002AD9C0 ghsemMapRot
       2330  918 002AD9C8 ghsemPalette
       2331  919 002AD9E0 ghsemPublicPFT
       2332  91A 002AD980 ghsemRFONTList
       2333  91B 002AD9D0 ghsemSprite
       2334  91C 002AD998 ghsemVisRgnPublish
       2335  91D 002AD990 ghsemVisRgnUniqueness
       2336  91E 002AD978 ghsemWndobj
       2337  91F 002B3824 giDelayedPowerTimeout
       2338  920 002AE0B4 giDimTimeOutMs
       2339  921 002AE0BC giPowerOffTimeOutMs
       2340  922 002AE0B8 giPowerSessionActivityTimeOutMs
       2341  923 002B6BA8 giScreenSaveTimeOutMs
       2342  924 002ADB10 giheCount
       2343  925 002ADB0C giheCountPeak
       2344  926 002ADB14 giheLast
       2345  927 002B1A38 giosbKbdControl
       2346  928 002AD950 gjCurCharset
       2347  929 002AE770 gklp
       2348  92A 002B6B70 gklpBootTime
       2349  92B 002B383C gktp
       2350  92C 002B6B88 glMitInGuard
       2351  92D 002AD9BC glRenderEndDelete
       2352  92E 002B02E8 gliQpcFreq
       2353  92F 002B3850 gnDCECount
       2354  930 002AE858 gnInUseDCECount
       2355  931 002ADFAC gnPoSessionSwitchBlockCount
       2356  932 002B6B74 gnRetryReadInput
       2357  933 002B37F8 gpClipFormatExceptionList
       2358  934 002B6B48 gpConsoleShadowDisplayChangeEvent
       2359  935 002AFAA8 gpCursorClip
       2360  936 002ADE68 gpDispInfo
       2361  937 002B6BA0 gpDpiKernelModeMetricsCache
       2362  938 002B6B98 gpDpiKernelModeMetricsMRUNode
       2363  939 002AEA18 gpEventDiconnectDesktop
       2364  93A 002ADF08 gpEventPnPWainting
       2365  93B 002AEF88 gpGdiSharedMemory
       2366  93C 002ADDA8 gpHandleFlagsMutex
       2367  93D 002AF4E0 gpHidInput
       2368  93E 002B3B28 gpHidInterfaceGuid
       2369  93F 002AF4D0 gpIOCPDispatcher
       2370  940 002AFB28 gpInputConfig
       2371  941 002AF4C8 gpInputExtensibilityCallout
       2372  942 002AFAB0 gpInputGlobals
       2373  943 002B36F0 gpJobsList
       2374  944 002AE870 gpKL
       2375  945 002AF4D8 gpKSTIOCPDispatcher
       2376  946 002AE878 gpKbdNlsTbl
       2377  947 002AE880 gpKbdTbl
       2378  948 002ADB50 gpKernelHandleTable
       2379  949 002AF4E8 gpKeyboardSensor
       2380  94A 002AEE00 gpLockShortDelay
       2381  94B 002AEA20 gpMonitorCached
       2382  94C 002B38A0 gpMonitorMouse
       2383  94D 002AF4F0 gpMouseSensor
       2384  94E 002B3818 gpRemoteBeepDevice
       2385  94F 002AEA10 gpRemoteSessionOcclusionEvent
       2386  950 002B3860 gpScancodeMap
       2387  951 002ADF10 gpThinWireCache
       2388  952 002AF4C0 gpTouchProcessor
       2389  953 002AEA70 gpW32FastMutex
       2390  954 002AE788 gpWin32kDriverObject
       2391  955 002B6B60 gpWinEventHooks
       2392  956 002B0250 gpai
       2393  957 002AE098 gpbIgnoreSleepInput
       2394  958 002AE0A0 gpbInHiberBoot
       2395  959 002B37C0 gpbwlList
       2396  95A 002ADDD0 gpdeskRecalcQueueAttach
       2397  95B 002AD168 gpdwCPUserPreferencesMask
       2398  95C 002ADAD0 gpepCSRSS
       2399  95D 002AE0C0 gpepInit
       2400  95E 002ADFA0 gpevtDesktopDestroyed
       2401  95F 002ADF70 gpevtMonitorPowerWaiter
       2402  960 002ADF98 gpevtPTPOperation
       2403  961 002ADDA0 gpevtQueueReadyForCallout
       2404  962 002ADF78 gpevtRitReadyForCallOut
       2405  963 002ADF90 gpevtSynthesizedContainerMouseInput
       2406  964 002ADF88 gpevtVideoInitialized
       2407  965 002ADF80 gpevtVideoportCallout
       2408  966 002ADE40 gpidLogon
       2409  967 002ADDB0 gpidLogonUI
       2410  968 002AE0D8 gpkdiStatic
       2411  969 002B0260 gpopupMenu
       2412  96A 002B3770 gppiDManipHook
       2413  96B 002ADDE0 gppiFullscreen
       2414  96C 002ADDB8 gppiInputProvider
       2415  96D 002ADDC0 gppiList
       2416  96E 002B3768 gppiLockSFW
       2417  96F 002B3CC8 gppiScreenSaver
       2418  970 002ADE58 gppiStarting
       2419  971 002B3778 gppiUserApiHook
       2420  972 002ADDF0 gpqCursor
       2421  973 002B3758 gpqForeground
       2422  974 002ADDF8 gpqForegroundPrev
       2423  975 002AE790 gpresDitCompositionInputSinkQuery
       2424  976 002AE798 gpresDitMouseInjectionFlush
       2425  977 002AE7A0 gpresDitTouchInjection
       2426  978 002ADE78 gpresRender
       2427  979 002ADB48 gpresUser
       2428  97A 002ADED0 gpsemDITLuidHitTestWaiters
       2429  97B 002B68F0 gpsemDITMouseInjectionWaiters
       2430  97C 002ADF68 gpsemSwitchInProgressWaiters
       2431  97D 002ADB38 gpsi
       2432  97E 002B1B20 gptCursorAsync
       2433  97F 002A82B4 gptInd
       2434  980 002B6900 gptSSCursor
       2435  981 002B37C8 gptiBlockInput
       2436  982 002ADAE0 gptiCurrent
       2437  983 002B3CD0 gptiForeground
       2438  984 002B3788 gptiLockUpdate
       2439  985 002AE860 gptiManipulationThread
       2440  986 002B68D0 gptiModerncoreTimerThread
       2441  987 002B36F8 gptiRit
       2442  988 002B37B0 gptiShutdownNotify
       2443  989 002B3790 gptiShutdownWaiter
       2444  98A 002ADDE8 gptiTSRequest
       2445  98B 002B37A8 gptiTasklist
       2446  98C 002ADE50 gptmrMaster
       2447  98D 002AEB38 gptmrWD
       2448  98E 002AE0E8 gpusMouseVKey
       2449  98F 002ADB30 gpvSharedAlloc
       2450  990 002ADB28 gpvSharedBase
       2451  991 002A8750 gpviCPUserPreferences
       2452  992 002B3848 gpvwplHungRedraw
       2453  993 002B68D8 gpwpiFirstWow
       2454  994 002B3888 gpwtiFirst
       2455  995 002ADE80 gpxsGlobals
       2456  996 002B37D8 grpWinStaList
       2457  997 002B3760 grpdeskIODefault
       2458  998 002B3CC0 grpdeskRitInput
       2459  999 002B68E0 grpwinstaLogoff
       2460  99A 002B1A28 gsmsList
       2461  99B 002B6B80 gspdeskShouldBeForeground
       2462  99C 002B02C8 gspklBaseLayout
       2463  99D 002B34A0 gspklGlobalActive
       2464  99E 002B37B8 gspwndInternalCapture
       2465  99F 002B02E0 gstServiceFilterAuditStackCacheSize
       2466  9A0 002ADF20 gstrBaseWinStationName
       2467  9A1 002B19C0 gtmrAdjustmentListHead
       2468  9A2 002B19D0 gtmrListHead
       2469  9A3 002B3878 gtmridAccessTimeOut
       2470  9A4 002ADEFC guKbdTblSize
       2471  9A5 002B68E8 guiActivateShellWindow
       2472  9A6 002B6E44 gulDelayedSwitchAction
       2473  9A7 002AD94C gulFontInformation
       2474  9A8 002B0350 gullUserCritAcquireToken
       2475  9A9 002AD948 gusLanguageID
       2476  9AA 002B6BC0 gwMKButtonState
       2477  9AB 002AD298 gwMKCurrentButton
       2478  9AC 002ADE90 gxsSection
       2479  9AD 002B36B0 gxsSectionHandle
       2480  9AE 000D6FA0 hCreateKernelEvent
       2481  9AF 001606D0 hCreateKernelTimer
       2482  9B0 00013590 hCreateSolidBrushInternal
       2483  9B1 002ADAE8 hModuleWin
       2484  9B2 002AE0E0 hModuleWinKernel
       2485  9B3 000D0890 hbmSelectBitmap
       2486  9B4 0004D530 hbmSelectBitmapInternal
       2487  9B5 00052100 hdcOpenDCW
       2488  9B6 00051D60 hdevEnumerate
       2489  9B7 0001EE60 isChildPartition
       2490  9B8 000A6780 lNormAngle
       2491  9B9 0008F9E0 ldevLoadDriver
       2492  9BA 0008F000 ldevLoadImage
       2493  9BB 0008D130 ldevLoadInternal
       2494  9BC 00090A50 ldevUnloadImage
       2495  9BD 002805E0 luidSystem
       2496  9BE 0028118C nCharsets
       2497  9BF 000A4B10 newpathalloc
       2498  9C0 001868B0 pProcessDfbSurfaces
       2499  9C1 00093890 pProcessDfbSurfaces2
       2500  9C2 00093960 pProcessDfbSurfacesInternal
       2501  9C3 002A8900 psTcb
       2502  9C4 00190530 rgbFromColorref
       2503  9C5 002A1000 s_rgSensorMap
       2504  9C6 00280590 szCOMPOSITIONINPUTQUEUE_NAME
       2505  9C7 002805C8 szMIPFLAGS
       2506  9C8 002678EC szNull
       2507  9C9 002B03D0 szWindowStationDirectory
       2508  9CA 001906E0 ulCharsetToCodePage
       2509  9CB 000DFCA0 ulColorRefToRGB
       2510  9CC 000B3030 ulGetNearestIndexFromColorref
       2511  9CD 00097A90 ulIndexToRGB
       2512  9CE 000DBAC0 vAdvanceAETEdges
       2513  9CF 00034D50 vConvertXformToMatrix
       2514  9D0 00090FC0 vDynamicConvertNewSurfaceDCs
        524  9D1 000DF750 vFreeDriverInfo2
       2515  9D2 000CDFA0 vMarkFreeW32Process
       2516  9D3 000CA850 vMarkFreeW32Thread
       2517  9D4 00182D70 vMatchAPal
       2518  9D5 000DC390 vMoveNewEdges
       2519  9D6 00184EA0 vRestoreRegion
       2520  9D7 000DC160 vXSortAETEdges
       2521  9D8 0000C7A0 xxxActivateKeyboardLayout
       2522  9D9 0000A0A0 xxxChangeForegroundKeyboardTable
       2523  9DA 0008B630 xxxCreateSystemThreads
       2524  9DB 00163FB0 xxxDisplayDiagBlackScreenDetected
       2525  9DC 0006E370 xxxDwmControl
       2526  9DD 00057D50 xxxEnumDisplayMonitors
       2527  9DE 0000C850 xxxInternalActivateKeyboardLayout
       2528  9DF 0000FBD0 xxxInternalToUnicode
       2529  9E0 00010480 xxxKENLSProcs
       2530  9E1 00202900 xxxKeyEvent
       2531  9E2 00010A10 xxxKeyEventEx
       2532  9E3 00081100 xxxODI_ColorInit
       2533  9E4 000105B0 xxxProcessKeyEvent
       2534  9E5 0006D160 xxxRemoteConnect
       2535  9E6 00067F00 xxxResetDisplayDevice
       2536  9E7 0000B7E0 xxxSafeLoadKeyboardLayoutEx
       2537  9E8 000E1210 xxxSendWinlogonPowerMessage
       2538  9E9 00024990 xxxSetProcessInitState
       2539  9EA 0001C070 xxxSystemParametersInfo
       2540  9EB 0000FAC0 xxxToUnicodeEx
       2541  9EC 001FCA00 xxxUnloadKeyboardLayout
       2542  9ED 00010C20 xxxUpdateGlobalsAndSendKeyEvent
       2543  9EE 000804B0 xxxUpdatePerUserAccessPackSettings
       2544  9EF 00061020 xxxUserChangeDisplaySettings
       2545  9F0 00069C40 xxxUserPowerCalloutWorker
       2546  9F1 0001D590 xxxUserProcessCallout
       2547  9F2 0006B8D0 xxxUserSetDisplayConfig
       2548  9F3 000205B0 zzzDestroyQueue

  Summary

       19000 .data
       18000 .edata
        6000 .idata
        1000 .kbdfall
       1F000 .pdata
       47000 .rdata
       13000 .reloc
       29000 .rsrc
      259000 .text
        5000 GFIDS
        6000 INIT
        1000 NONPAGE
        2000 PAGE
