Microsoft (R) COFF/PE Dumper Version 14.29.30137.0
Copyright (C) Microsoft Corporation.  All rights reserved.


Dump of file C:\Windows\System32\AcGenral.dll

File Type: DLL

  Image has the following dependencies:

    apphelp.dll
    msvcrt.dll
    ntdll.dll
    api-ms-win-service-core-l1-1-1.dll
    api-ms-win-service-winsvc-l1-1-0.dll
    api-ms-win-service-management-l1-1-0.dll
    api-ms-win-service-management-l2-1-0.dll
    api-ms-win-eventing-provider-l1-1-0.dll
    SHLWAPI.dll
    USER32.dll
    ole32.dll
    SHELL32.dll
    USERENV.dll
    KERNEL32.dll
    ADVAPI32.dll
    RPCRT4.dll
    MPR.dll
    SspiCli.dll
    api-ms-win-core-apiquery-l1-1-0.dll

  Image has the following delay load dependencies:

    ext-ms-win-ntuser-windowstation-l1-1-0.dll
    pcacli.dll

  Section contains the following exports for AcGenral.dll

    00000000 characteristics
     FD81AD1 time date stamp
        0.00 version
           1 ordinal base
           2 number of functions
           2 number of names

    ordinal hint RVA      name

          1    0 00003DA0 GetHookAPIs
          2    1 00003E50 NotifyShims

  Section contains the following imports:

    apphelp.dll
             18003C768 Import Address Table
             180054D10 Import Name Table
                     0 time date stamp
                     0 Index of first forwarder reference

                          B8 SdbReleaseDatabase
                          1B SE_CALLBACK_Lookup
                          34 SE_ShimDPF
                          85 SdbGetStringTagPtr
                          5A SdbFindNextTag
                          53 SdbFindFirstTag
                          9A SdbOpenLocalDatabase
                          1A SE_CALLBACK_AddHook
                          2A SE_GetShimId
                          1F SE_COM_HookObject
                          20 SE_COM_Lookup
                          1D SE_COM_AddServer
                          1C SE_COM_AddHook
                          8A SdbInitDatabase
                          7E SdbGetPDBFromGUID
                          BA SdbResolveDatabase

    msvcrt.dll
             18003C7F0 Import Address Table
             180054D98 Import Name Table
                     0 time date stamp
                     0 Index of first forwarder reference

                          5B __CxxFrameHandler3
                         38A _wcsicmp
                         369 _vsnwprintf
                          55 _XcptFilter
                          AE _amsg_exit
                         44C free
                         394 _wcsnicmp
                         4C1 strchr
                         4D9 strtoul
                         518 wcstol
                         420 atoi
                         2FA _stricmp
                         363 _vsnprintf
                         4D4 strstr
                         50B wcsncmp
                         405 _wtoi
                         500 wcscat_s
                         517 wcstok_s
                         4D2 strrchr
                         510 wcsrchr
                         501 wcschr
                         50F wcspbrk
                         3A6 _wcsupr
                         514 wcsstr
                         513 wcsspn
                         360 _vscwprintf
                         478 iswspace
                         3F6 _wsplitpath_s
                         472 iswctype
                         4EB towlower
                         4EC towupper
                         505 wcscpy_s
                          12 ??1type_info@@UEAA@XZ
                         486 malloc
                         17D _initterm
                          57 __C_specific_handler
                          2F ?terminate@@YAXXZ
                         1E6 _lock
                         341 _unlock
                          7B __dllonexit
                         290 _onexit
                          4B _CxxThrowException
                         502 wcscmp
                         1E1 _local_unwind
                         492 memcpy
                         494 memmove
                         496 memset
                         4C2 strcmp

    ntdll.dll
             18003C978 Import Address Table
             180054F20 Import Name Table
                     0 time date stamp
                     0 Index of first forwarder reference

                         1EB NtQueryObject
                         5D1 RtlSubAuthoritySid
                         1E0 NtQueryInformationToken
                         485 RtlInitializeSid
                         4D0 RtlLengthRequiredSid
                         4B1 RtlIsDosDeviceName_U
                         400 RtlGUIDFromString
                         46F RtlInitUnicodeString
                         5F7 RtlUnicodeStringToInteger
                         2D9 RtlAnsiStringToUnicodeString
                         462 RtlInitAnsiString
                          FD NtClose
                         248 NtSetInformationProcess
                          22 DbgPrint
                         435 RtlGetOwnerSecurityDescriptor
                         1F3 NtQuerySecurityObject
                         1A0 NtOpenFile
                         397 RtlDosPathNameToNtPathName_U
                         433 RtlGetNtSystemRoot
                         34B RtlCreateServiceSid
                         628 RtlVirtualUnwind
                         4E9 RtlLookupFunctionEntry
                         2F3 RtlCaptureContext
                         3F6 RtlFreeHeap
                         2D3 RtlAllocateHeap
                         3BA RtlEqualSid
                         3FD RtlFreeUnicodeString
                         3F0 RtlFormatCurrentUserKeyPath
                         264 NtSetValueKey
                         11B NtCreateKey
                         1FE NtQueryValueKey
                         1A3 NtOpenKey
                         553 RtlReAllocateHeap
                         45B RtlImageNtHeader
                         4B7 RtlIsNameInExpression
                         1AD NtOpenProcessToken
                         4FE RtlNtStatusToDosError
                         1B6 NtOpenThreadToken

    api-ms-win-service-core-l1-1-1.dll
             18003C710 Import Address Table
             180054CB8 Import Name Table
                     0 time date stamp
                     0 Index of first forwarder reference

                           0 EnumDependentServicesW

    api-ms-win-service-winsvc-l1-1-0.dll
             18003C758 Import Address Table
             180054D00 Import Name Table
                     0 time date stamp
                     0 Index of first forwarder reference

                           2 ControlService

    api-ms-win-service-management-l1-1-0.dll
             18003C720 Import Address Table
             180054CC8 Import Name Table
                     0 time date stamp
                     0 Index of first forwarder reference

                           4 OpenSCManagerW
                           3 DeleteService
                           0 CloseServiceHandle
                           5 OpenServiceW

    api-ms-win-service-management-l2-1-0.dll
             18003C748 Import Address Table
             180054CF0 Import Name Table
                     0 time date stamp
                     0 Index of first forwarder reference

                           6 QueryServiceStatusEx

    api-ms-win-eventing-provider-l1-1-0.dll
             18003C700 Import Address Table
             180054CA8 Import Name Table
                     0 time date stamp
                     0 Index of first forwarder reference

                           9 EventWriteTransfer

    SHLWAPI.dll
             18003C5F8 Import Address Table
             180054BA0 Import Name Table
                     0 time date stamp
                     0 Index of first forwarder reference

                         108 SHStrDupW
                          C7 SHGetValueW

    USER32.dll
             18003C620 Import Address Table
             180054BC8 Import Name Table
                     0 time date stamp
                     0 Index of first forwarder reference

                         1F8 GetWindowThreadProcessId
                         35A SetRect
                         1C7 GetSystemMetrics
                         2F3 RegisterSuspendResumeNotification
                         318 SendMessageW
                         1C1 GetShellWindow
                         159 GetGUIThreadInfo
                         131 GetClassNameW
                         359 SetPropW
                         38D ShowWindow
                         2B0 PostQuitMessage
                         384 SetWindowsHookExAW
                         328 SetCursor
                         258 LoadCursorW
                          FD EnumDisplayDevicesW
                         247 IsWindow
                           8 AllowSetForegroundWindow
                         293 MsgWaitForMultipleObjects
                          BD DispatchMessageW
                         18B GetMonitorInfoW
                         2AB PeekMessageW
                         3AD TranslateMessage

    ole32.dll
             18003CAB0 Import Address Table
             180055058 Import Name Table
                     0 time date stamp
                     0 Index of first forwarder reference

                          8C CoTaskMemFree
                          2B CoCreateInstance
                          54 CoGetObject
                         20C StringFromGUID2

    SHELL32.dll
             18003C5C0 Import Address Table
             180054B68 Import Name Table
                     0 time date stamp
                     0 Index of first forwarder reference

                         14F SHGetFolderPathW
                         14E SHGetFolderPathEx
                          9C SHCreateDirectoryExW
                             Ordinal   165
                          8C SHChangeNotify
                         16D SHGetSpecialFolderPathW

    USERENV.dll
             18003C6D8 Import Address Table
             180054C80 Import Name Table
                     0 time date stamp
                     0 Index of first forwarder reference

                          17 GetAllUsersProfileDirectoryW
                          26 GetUserProfileDirectoryW

    KERNEL32.dll
             18003C260 Import Address Table
             180054808 Import Name Table
                     0 time date stamp
                     0 Index of first forwarder reference

                         277 GetLongPathNameW
                         263 GetFullPathNameW
                         444 QueryActCtxSettingsW
                         2D7 GetShortPathNameW
                         649 lstrcmpiW
                          CE CreateFileW
                         4CF ResolveDelayLoadedAPI
                         111 DelayLoadFailureHook
                         4B8 ReleaseSRWLockExclusive
                           0 AcquireSRWLockExclusive
                         5F1 WakeAllConditionVariable
                         590 SleepConditionVariableSRW
                         4E8 SearchPathW
                         332 GetWindowsDirectoryW
                         21A GetCurrentDirectoryW
                         434 ProcessIdToSessionId
                          C2 CreateEventW
                         24F GetFileAttributesW
                         24A GetFileAttributesA
                         2EA GetSystemDirectoryW
                          9D CompareStringOrdinal
                         4D3 ResumeThread
                          7D CheckElevationEnabled
                         5DE VirtualProtect
                         27D GetModuleFileNameW
                          F5 CreateThread
                         16B ExpandEnvironmentStringsW
                         321 GetUserDefaultUILanguage
                         525 SetErrorMode
                           8 AddDllDirectory
                          89 CloseHandle
                         40E OpenMutexW
                         221 GetCurrentProcessId
                          DD CreateMutexW
                         58E Sleep
                         452 QueryPerformanceCounter
                         225 GetCurrentThreadId
                         2F3 GetSystemTimeAsFileTime
                         311 GetTickCount
                         5BF UnhandledExceptionFilter
                         57E SetUnhandledExceptionFilter
                         220 GetCurrentProcess
                         59D TerminateProcess
                         281 GetModuleHandleW
                         2B8 GetProcAddress
                         351 HeapAlloc
                         2BE GetProcessHeap
                         138 EnterCriticalSection
                         3C4 LeaveCriticalSection
                         35A HeapSize
                         35D HeapValidate
                         36B InitializeCriticalSectionAndSpinCount
                         5D8 VirtualAlloc
                         5DB VirtualFree
                         551 SetProcessInformation
                         167 ExitProcess
                         524 SetEnvironmentVariableW
                         243 GetEnvironmentVariableW
                         398 IsWow64Process
                         1DF GetCommandLineA
                          E3 CreateProcessA
                         5E9 WaitForSingleObject
                         246 GetExitCodeProcess
                         26A GetLastError
                         3D6 LocalFree
                         541 SetLastError
                         27C GetModuleFileNameA
                         355 HeapFree
                         19F FindResourceW
                         58D SizeofResource
                         3CE LoadResource
                         3E2 LockResource
                         3F6 MultiByteToWideChar
                         523 SetEnvironmentVariableA
                         3CA LoadLibraryExW
                         1B4 FreeLibrary
                         3CB LoadLibraryW
                         1E0 GetCommandLineW
                         652 lstrlenW
                          B3 CreateActCtxW
                         446 QueryActCtxW
                         4B4 ReleaseActCtx
                         312 GetTickCount64
                         3EF MoveFileExW
                         114 DeleteCriticalSection
                         3D1 LocalAlloc
                          9C CompareStringEx
                         3B5 LCIDToLocaleName
                         26D GetLocaleInfoEx
                         3B7 LCMapStringEx
                         358 HeapReAlloc
                         610 WideCharToMultiByte
                         191 FindNLSStringEx
                         387 IsNLSDefinedString

    ADVAPI32.dll
             18003C1A0 Import Address Table
             180054748 Import Name Table
                     0 time date stamp
                     0 Index of first forwarder reference

                         2A8 RegSetValueExA
                         299 RegQueryValueExW
                         25B RegCloseKey
                         264 RegCreateKeyExW
                         293 RegQueryInfoKeyW
                         27D RegEnumValueW
                         2A9 RegSetValueExW
                         27A RegEnumKeyExW
                          83 ConvertStringSidToSidW
                         1A9 LookupAccountSidW
                         26A RegDeleteKeyExW
                         273 RegDeleteValueW
                         215 OpenProcessToken
                         281 RegGetValueW
                         285 RegLoadKeyW
                         2AC RegUnLoadKeyW
                         1AF LookupPrivilegeValueW
                          1F AdjustTokenPrivileges
                         170 GetTokenInformation
                         2FB StartServiceW
                          93 CreateWellKnownSid
                         250 QueryServiceStatus
                         28C RegOpenKeyExW

    RPCRT4.dll
             18003C568 Import Address Table
             180054B10 Import Name Table
                     0 time date stamp
                     0 Index of first forwarder reference

                         174 RpcBindingFree
                          94 Ndr64AsyncClientCall
                         16E RpcAsyncInitializeHandle
                         214 RpcStringFreeW
                         185 RpcBindingSetAuthInfoExW
                         16B RpcAsyncCancelCall
                         176 RpcBindingFromStringBindingW
                         210 RpcStringBindingComposeW
                          2E I_RpcExceptionFilter
                         16C RpcAsyncCompleteCall

    MPR.dll
             18003C558 Import Address Table
             180054B00 Import Name Table
                     0 time date stamp
                     0 Index of first forwarder reference

                          2D WNetGetConnectionW

    SspiCli.dll
             18003C610 Import Address Table
             180054BB8 Import Name Table
                     0 time date stamp
                     0 Index of first forwarder reference

                          19 GetUserNameExW

    api-ms-win-core-apiquery-l1-1-0.dll
             18003C6F0 Import Address Table
             180054C98 Import Name Table
                     0 time date stamp
                     0 Index of first forwarder reference

                           0 ApiSetQueryApiSetPresence

  Section contains the following delay load imports:

    ext-ms-win-ntuser-windowstation-l1-1-0.dll
              00000001 Characteristics
      0000000180057D30 Address of HMODULE
      000000018005C000 Import Address Table
      0000000180054488 Import Name Table
      0000000180054518 Bound Import Name Table
      0000000000000000 Unload Import Name Table
                     0 time date stamp

                                    0000000180002E0A     6 GetThreadDesktop
                                    0000000180002DF8     7 GetUserObjectInformationW
                                    0000000180002D16     5 GetProcessWindowStation

    pcacli.dll
              00000001 Characteristics
      0000000180057D48 Address of HMODULE
      000000018005C020 Import Address Table
      00000001800544A8 Import Name Table
      0000000180054538 Bound Import Name Table
      0000000000000000 Unload Import Name Table
                     0 time date stamp

                                    0000000180002E1C     3 PcaMonitorProcess

  Summary

        2000 .data
        1000 .didat
        3000 .pdata
       1C000 .rdata
        1000 .reloc
        2000 .rsrc
       3A000 .text
